Measured thermophysical data. Improved concentration of citrus essential oil by solvent extraction with acetate ionic liquids
Source: Fluid Phase Equilib., 2014, 10.1016/j.fluid.2013.10.036
Compound 1: (R)-(+)-limonene, C10H16
Compound 2: (.+-.)-linalool, C10H18O
Compound 3: 1-ethyl-3-methylimidazolium acetate, C8H14N2O2
Compound 4: 1-butyl-3-methylimidazolium acetate, C10H18N2O2

System: (R)-(+)-limonene; phases: Liquid
Fixed: Pressure, kPa = 101.325
Property: Mass density, kg/m3 (Liquid); method: Vibrating tube method
Temperature, K	Mass density, kg/m3	uncertainty
298.15	838.68	.01

System: (R)-(+)-limonene; phases: Liquid
Fixed: Pressure, kPa = 101.325
Property: Refractive index (Na D-line) (Liquid); method: Standard Abbe refractometry
Temperature, K	Refractive index (Na D-line)	uncertainty
298.15	1.47081	.00004

System: (.+-.)-linalool; phases: Liquid
Fixed: Pressure, kPa = 101.325
Property: Mass density, kg/m3 (Liquid); method: Vibrating tube method
Temperature, K	Mass density, kg/m3	uncertainty
298.15	856.83	.01

System: (.+-.)-linalool; phases: Liquid
Fixed: Pressure, kPa = 101.325
Property: Refractive index (Na D-line) (Liquid); method: Standard Abbe refractometry
Temperature, K	Refractive index (Na D-line)	uncertainty
298.15	1.45961	.00004

System: 1-ethyl-3-methylimidazolium acetate; phases: Liquid
Fixed: Pressure, kPa = 101.325
Property: Mass density, kg/m3 (Liquid); method: Vibrating tube method
Temperature, K	Mass density, kg/m3	uncertainty
298.15	1099.02	.01

System: 1-ethyl-3-methylimidazolium acetate; phases: Liquid
Fixed: Pressure, kPa = 101.325
Property: Refractive index (Na D-line) (Liquid); method: Standard Abbe refractometry
Temperature, K	Refractive index (Na D-line)	uncertainty
298.15	1.50069	.00004

System: 1-butyl-3-methylimidazolium acetate; phases: Liquid
Fixed: Pressure, kPa = 101.325
Property: Mass density, kg/m3 (Liquid); method: Vibrating tube method
Temperature, K	Mass density, kg/m3	uncertainty
298.15	1052.7	.01

System: 1-butyl-3-methylimidazolium acetate; phases: Liquid
Fixed: Pressure, kPa = 101.325
Property: Refractive index (Na D-line) (Liquid); method: Standard Abbe refractometry
Temperature, K	Refractive index (Na D-line)	uncertainty
298.15	1.49372	.00004

System: (.+-.)-linalool + (R)-(+)-limonene + 1-ethyl-3-methylimidazolium acetate; phases: Liquid mixture 1, Liquid mixture 2
Fixed: Pressure, kPa = 101
Property: Mole fraction of (.+-.)-linalool (Liquid mixture 1); method: Other
Property: Mole fraction of (R)-(+)-limonene (Liquid mixture 2); method: Other
Property: Mole fraction of (.+-.)-linalool (Liquid mixture 2); method: Other
Temperature, K	Mole fraction of (R)-(+)-limonene	Mole fraction of (.+-.)-linalool	uncertainty	Mole fraction of (R)-(+)-limonene	uncertainty	Mole fraction of (.+-.)-linalool	uncertainty
298.15	.044	0	.009	1	.006	0	.006
298.15	.047	.038	.009	.994	.006	.006	.006
298.15	.057	.09	.009	.988	.006	.012	.006
298.15	.097	.212	.009	.981	.006	.019	.006
298.15	.152	.279	.009	.973	.006	.027	.006
298.15	.338	.319	.009	.963	.006	.035	.006
298.15	.551	.229	.009	.901	.006	.07	.006

System: (.+-.)-linalool + (R)-(+)-limonene + 1-butyl-3-methylimidazolium acetate; phases: Liquid mixture 2, Liquid mixture 1
Fixed: Pressure, kPa = 101
Property: Mole fraction of (.+-.)-linalool (Liquid mixture 2); method: Other
Property: Mole fraction of (R)-(+)-limonene (Liquid mixture 1); method: Other
Property: Mole fraction of (.+-.)-linalool (Liquid mixture 1); method: Other
Temperature, K	Mole fraction of (R)-(+)-limonene	Mole fraction of (.+-.)-linalool	uncertainty	Mole fraction of (R)-(+)-limonene	uncertainty	Mole fraction of (.+-.)-linalool	uncertainty
298.15	1	0	.006	.067	.009	0	.009
298.15	.999	.001	.006	.071	.009	.019	.009
298.15	.995	.005	.006	.093	.009	.106	.009
298.15	.992	.008	.006	.169	.009	.198	.009
298.15	.989	.011	.006	.226	.009	.225	.009
298.15	.959	.03	.006	.479	.009	.237	.009
298.15	.917	.052	.006	.667	.009	.163	.009

System: (R)-(+)-limonene + 1-ethyl-3-methylimidazolium acetate; phases: Liquid mixture 1, Liquid mixture 2
Property: Mole fraction of (R)-(+)-limonene (Liquid mixture 1); method: Other
Temperature, K	Pressure, kPa	Mole fraction of (R)-(+)-limonene	uncertainty
298.15	101	.044	.009

System: (R)-(+)-limonene + 1-butyl-3-methylimidazolium acetate; phases: Liquid mixture 1, Liquid mixture 2
Property: Mole fraction of (R)-(+)-limonene (Liquid mixture 1); method: Other
Temperature, K	Pressure, kPa	Mole fraction of (R)-(+)-limonene	uncertainty
298.15	101	.067	.009
