Measured thermophysical data. Measurements of different thermodynamic properties of systems containing ionic liquids and correlation of these properties using modified UNIFAC (Dortmund)
Source: Fluid Phase Equilib., 2010, 10.1016/j.fluid.2010.02.010
Compound 1: pentane, C5H12
Compound 2: hexane, C6H14
Compound 3: heptane, C7H16
Compound 4: octane, C8H18
Compound 5: decane, C10H22
Compound 6: 2,2,4-trimethylpentane, C8H18
Compound 7: 1-pentene, C5H10
Compound 8: 1-hexene, C6H12
Compound 9: 1-heptene, C7H14
Compound 10: 1-octene, C8H16
Compound 11: 1-decene, C10H20
Compound 12: 1-butyl-3-methylimidazolium trifluoromethanesulfonate, C9H15F3N2O3S
Compound 13: 1-hexyl-3-methylimidazolium trifluoromethanesulfonate, C11H19F3N2O3S
Compound 14: 1-octyl-3-methylimidazolium trifluoromethanesulfonate, C13H23F3N2O3S
Compound 15: 1-nonene, C9H18, purity 99.5%

System: 1-hexyl-3-methylimidazolium trifluoromethanesulfonate; phases: Liquid
Fixed: Pressure, kPa = 101.325
Property: Mass density, kg/m3 (Liquid); method: Vibrating tube method
Temperature, K	Mass density, kg/m3	uncertainty
308.16	1231.4	.05
313.16	1227.6	.05
318.16	1223.8	.05
323.16	1220	.05
328.16	1216.2	.05
333.16	1212.5	.05
338.16	1208.7	.05
343.16	1205	.05
348.15	1201.3	.05

System: 1-octyl-3-methylimidazolium trifluoromethanesulfonate; phases: Liquid
Fixed: Pressure, kPa = 101.325
Property: Mass density, kg/m3 (Liquid); method: Vibrating tube method
Temperature, K	Mass density, kg/m3	uncertainty
293.15	1197	.05
298.15	1193.2	.05
303.15	1189.5	.05
308.14	1185.8	.05
313.15	1182.1	.05
318.15	1178.4	.05
323.14	1174.7	.05
328.14	1171.1	.05
333.14	1167.4	.05
338.14	1163.7	.05
343.15	1160.1	.05
348.15	1156.5	.05
353.14	1152.9	.05

System: pentane + 1-butyl-3-methylimidazolium trifluoromethanesulfonate; phases: Liquid
Fixed: Pressure, kPa = 101
Fixed: Mole fraction of pentane = 0
Property: Activity coefficient of pentane (Liquid); method: Dilutor technique
Temperature, K	Activity coefficient of pentane	uncertainty
313.19	18.01	.45025
323.16	17.46	.4365
333.22	16.75	.41875

System: hexane + 1-butyl-3-methylimidazolium trifluoromethanesulfonate; phases: Liquid
Fixed: Pressure, kPa = 101
Fixed: Mole fraction of hexane = 0
Property: Activity coefficient of hexane (Liquid); method: Dilutor technique
Temperature, K	Activity coefficient of hexane	uncertainty
303.16	29.01	.72525
313.19	27.67	.69175
323.16	25.95	.64875
333.22	24.5	.6125

System: hexane + 1-butyl-3-methylimidazolium trifluoromethanesulfonate; phases: Liquid
Fixed: Pressure, kPa = 101
Fixed: Mole fraction of hexane = 0
Property: Activity coefficient of hexane (Liquid); method: Chromatography
Temperature, K	Activity coefficient of hexane	uncertainty
303.45	29.79	.8937
313.15	28.35	.8505
323.14	26.51	.7953
333.15	24.79	.7437

System: hexane + 1-butyl-3-methylimidazolium trifluoromethanesulfonate; phases: Liquid, Gas
Fixed: Temperature, K = 363.15
Property: Vapor or sublimation pressure, kPa (Liquid); method: Closed cell (Static) method
Mole fraction of hexane	Vapor or sublimation pressure, kPa	uncertainty
.00355	15.79	.0007895
.00754	32.19	.0016095
.01329	55.99	.0027995
.01949	79.76	.003988
.03099	117.7	.005885
.0467	165.7	.008285

System: hexane + 1-butyl-3-methylimidazolium trifluoromethanesulfonate; phases: Liquid
Fixed: Temperature, K = 413.15
Fixed: Pressure, kPa = 101
Property: Excess molar enthalpy (molar enthalpy of mixing), kJ/mol (Liquid); method: Flow calorimetry
Mole fraction of hexane	Excess molar enthalpy (molar enthalpy of mixing), kJ/mol	uncertainty
.0413	.239	.00239
.1199	.3163	.003163
.1573	.302	.00302
.1936	.2875	.002875
.2287	.2741	.002741
.2958	.2489	.002489
.359	.2282	.002282
.4186	.2065	.002065
.5283	.1728	.001728
.6269	.1327	.001327
.7159	.1039	.001039
.8344	.0619	.000619
.938	.0286	.000286

System: heptane + 1-butyl-3-methylimidazolium trifluoromethanesulfonate; phases: Liquid
Fixed: Pressure, kPa = 101
Fixed: Mole fraction of heptane = 0
Property: Activity coefficient of heptane (Liquid); method: Dilutor technique
Temperature, K	Activity coefficient of heptane	uncertainty
303.12	45.01	1.12525
313.15	42.32	1.058
323.12	39.8	.995
333.21	36.9	.9225

System: heptane + 1-butyl-3-methylimidazolium trifluoromethanesulfonate; phases: Liquid
Fixed: Pressure, kPa = 101
Fixed: Mole fraction of heptane = 0
Property: Activity coefficient of heptane (Liquid); method: Chromatography
Temperature, K	Activity coefficient of heptane	uncertainty
303.45	44.95	1.3485
313.15	42.41	1.2723
323.14	39.75	1.1925
333.15	36.97	1.1091

System: heptane + 1-butyl-3-methylimidazolium trifluoromethanesulfonate; phases: Liquid
Fixed: Pressure, kPa = 101
Property: Excess molar enthalpy (molar enthalpy of mixing), kJ/mol (Liquid); method: Flow calorimetry
Temperature, K	Mole fraction of heptane	Excess molar enthalpy (molar enthalpy of mixing), kJ/mol	uncertainty
363.15	.02	.0745	.000745
363.15	.0501	.1345	.001345
363.15	.1001	.176	.00176
363.15	.1502	.1822	.001822
363.15	.2002	.1748	.001748
363.15	.3003	.1548	.001548
363.15	.4003	.1304	.001304
363.15	.5003	.11	.0011
363.15	.6003	.0865	.000865
363.15	.7003	.0634	.000634
363.15	.8002	.0413	.000413
363.15	.9001	.0206	.000206
413.15	.0371	.3053	.003053
413.15	.1085	.3486	.003486
413.15	.143	.3476	.003476
413.15	.1766	.337	.00337
413.15	.2094	.3242	.003242
413.15	.2729	.2982	.002982
413.15	.3335	.2741	.002741
413.15	.3915	.2555	.002555
413.15	.5002	.2115	.002115
413.15	.6002	.1711	.001711
413.15	.6925	.1335	.001335
413.15	.8183	.083	.00083
413.15	.9311	.0318	.000318

System: octane + 1-butyl-3-methylimidazolium trifluoromethanesulfonate; phases: Liquid
Fixed: Pressure, kPa = 101
Fixed: Mole fraction of octane = 0
Property: Activity coefficient of octane (Liquid); method: Dilutor technique
Temperature, K	Activity coefficient of octane	uncertainty
303.12	70.26	1.7565
313.15	65.62	1.6405
323.12	60.07	1.50175
333.21	55.72	1.393

System: octane + 1-butyl-3-methylimidazolium trifluoromethanesulfonate; phases: Liquid
Fixed: Pressure, kPa = 101
Fixed: Mole fraction of octane = 0
Property: Activity coefficient of octane (Liquid); method: Chromatography
Temperature, K	Activity coefficient of octane	uncertainty
303.15	71.25	2.1375
313.36	65.48	1.9644
323.15	60.32	1.8096
333.15	55.19	1.6557

System: 1-pentene + 1-butyl-3-methylimidazolium trifluoromethanesulfonate; phases: Liquid
Fixed: Pressure, kPa = 101
Fixed: Mole fraction of 1-pentene = 0
Property: Activity coefficient of 1-pentene (Liquid); method: Dilutor technique
Temperature, K	Activity coefficient of 1-pentene	uncertainty
313.15	9.55	.23875
323.15	9.34	.2335
333.18	9.06	.2265

System: 1-pentene + 1-butyl-3-methylimidazolium trifluoromethanesulfonate; phases: Liquid
Fixed: Pressure, kPa = 101
Fixed: Mole fraction of 1-pentene = 0
Property: Activity coefficient of 1-pentene (Liquid); method: Chromatography
Temperature, K	Activity coefficient of 1-pentene	uncertainty
303.45	10.08	.3024
313.15	9.69	.2907
323.15	9.48	.2844
333.15	9.18	.2754

System: 1-hexene + 1-butyl-3-methylimidazolium trifluoromethanesulfonate; phases: Liquid
Fixed: Pressure, kPa = 101
Fixed: Mole fraction of 1-hexene = 0
Property: Activity coefficient of 1-hexene (Liquid); method: Dilutor technique
Temperature, K	Activity coefficient of 1-hexene	uncertainty
303.17	14.29	.35725
313.15	13.82	.3455
323.15	13.47	.33675
333.18	12.95	.32375

System: 1-hexene + 1-butyl-3-methylimidazolium trifluoromethanesulfonate; phases: Liquid
Fixed: Pressure, kPa = 101
Fixed: Mole fraction of 1-hexene = 0
Property: Activity coefficient of 1-hexene (Liquid); method: Chromatography
Temperature, K	Activity coefficient of 1-hexene	uncertainty
303.45	14.38	.4314
313.36	14	.42
323.14	13.51	.4053
333.14	12.99	.3897

System: 1-hexene + 1-butyl-3-methylimidazolium trifluoromethanesulfonate; phases: Liquid, Gas
Fixed: Temperature, K = 363.15
Property: Vapor or sublimation pressure, kPa (Liquid); method: Closed cell (Static) method
Mole fraction of 1-hexene	Vapor or sublimation pressure, kPa	uncertainty
.00894	22.54	.001127
.01714	41.27	.0020635
.02483	59.44	.002972
.03054	72.19	.0036095
.03837	89.35	.0044675
.04471	102.9	.005145
.05172	118	.0059
.0601	134.7	.006735
.06871	150.7	.007535
.08521	180.9	.009045

System: 1-hexene + 1-butyl-3-methylimidazolium trifluoromethanesulfonate; phases: Liquid
Fixed: Temperature, K = 413.15
Fixed: Pressure, kPa = 101
Property: Excess molar enthalpy (molar enthalpy of mixing), kJ/mol (Liquid); method: Flow calorimetry
Mole fraction of 1-hexene	Excess molar enthalpy (molar enthalpy of mixing), kJ/mol	uncertainty
.0431	.0981	.000981
.0845	.1853	.001853
.1632	.2519	.002519
.2004	.2409	.002409
.2364	.2321	.002321
.3049	.2125	.002125
.3691	.1958	.001958
.4292	.177	.00177
.5391	.1402	.001402
.637	.1126	.001126
.7247	.086	.00086
.8404	.0521	.000521
.9405	.0204	.000204

System: 1-heptene + 1-butyl-3-methylimidazolium trifluoromethanesulfonate; phases: Liquid
Fixed: Pressure, kPa = 101
Fixed: Mole fraction of 1-heptene = 0
Property: Activity coefficient of 1-heptene (Liquid); method: Dilutor technique
Temperature, K	Activity coefficient of 1-heptene	uncertainty
303.17	22.12	.553
313.13	21.25	.53125
323.16	20.25	.50625
333.16	19.74	.4935

System: 1-heptene + 1-butyl-3-methylimidazolium trifluoromethanesulfonate; phases: Liquid
Fixed: Pressure, kPa = 101
Fixed: Mole fraction of 1-heptene = 0
Property: Activity coefficient of 1-heptene (Liquid); method: Chromatography
Temperature, K	Activity coefficient of 1-heptene	uncertainty
303.45	21.82	.6546
313.15	21.32	.6396
323.14	20.57	.6171
333.15	19.92	.5976

System: 1-octene + 1-butyl-3-methylimidazolium trifluoromethanesulfonate; phases: Liquid
Fixed: Pressure, kPa = 101
Fixed: Mole fraction of 1-octene = 0
Property: Activity coefficient of 1-octene (Liquid); method: Dilutor technique
Temperature, K	Activity coefficient of 1-octene	uncertainty
303.17	33.34	.8335
313.13	31.47	.78675
323.16	29.92	.748
333.16	28.99	.72475

System: 1-octene + 1-butyl-3-methylimidazolium trifluoromethanesulfonate; phases: Liquid
Fixed: Pressure, kPa = 101
Fixed: Mole fraction of 1-octene = 0
Property: Activity coefficient of 1-octene (Liquid); method: Chromatography
Temperature, K	Activity coefficient of 1-octene	uncertainty
303.45	33.7	1.011
313.15	32.01	.9603
323.14	30.61	.9183
333.15	29.28	.8784

System: 1-decene + 1-butyl-3-methylimidazolium trifluoromethanesulfonate; phases: Liquid, Gas
Fixed: Temperature, K = 363.15
Property: Vapor or sublimation pressure, kPa (Liquid); method: Closed cell (Static) method
Mole fraction of 1-decene	Vapor or sublimation pressure, kPa	uncertainty
.00319	1.132	.0000566
.00824	2.809	.00014045
.01133	3.711	.00018555
.01441	4.613	.00023065
.01742	5.432	.0002716
.0206	6.145	.00030725
.0272	6.989	.00034945

System: hexane + 1-hexyl-3-methylimidazolium trifluoromethanesulfonate; phases: Liquid
Fixed: Pressure, kPa = 101
Fixed: Mole fraction of hexane = 0
Property: Activity coefficient of hexane (Liquid); method: dilutor technique
Temperature, K	Activity coefficient of hexane	uncertainty
303.11	12.75	.31875
313.16	11.9	.2975
323.17	11.38	.2845
333.17	10.92	.273

System: heptane + 1-hexyl-3-methylimidazolium trifluoromethanesulfonate; phases: Liquid
Fixed: Pressure, kPa = 101
Fixed: Mole fraction of heptane = 0
Property: Activity coefficient of heptane (Liquid); method: dilutor technique
Temperature, K	Activity coefficient of heptane	uncertainty
303.16	19.17	.47925
313.18	18.02	.4505
323.16	17.35	.43375
333.14	16.65	.41625

System: octane + 1-hexyl-3-methylimidazolium trifluoromethanesulfonate; phases: Liquid
Fixed: Pressure, kPa = 101
Fixed: Mole fraction of octane = 0
Property: Activity coefficient of octane (Liquid); method: dilutor technique
Temperature, K	Activity coefficient of octane	uncertainty
303.16	27.07	.67675
313.18	25.49	.63725
323.16	24.58	.6145
333.14	23.36	.584

System: octane + 1-hexyl-3-methylimidazolium trifluoromethanesulfonate; phases: Liquid
Fixed: Pressure, kPa = 101
Fixed: Mole fraction of octane = 0
Property: Activity coefficient of octane (Liquid); method: Chromatography
Temperature, K	Activity coefficient of octane	uncertainty
303.14	27.16	.8148
313.15	25.79	.7737
323.15	24.83	.7449
333.14	23.8	.714

System: 1-pentene + 1-hexyl-3-methylimidazolium trifluoromethanesulfonate; phases: Liquid
Fixed: Pressure, kPa = 101
Fixed: Mole fraction of 1-pentene = 0
Property: Activity coefficient of 1-pentene (Liquid); method: dilutor technique
Temperature, K	Activity coefficient of 1-pentene	uncertainty
303.18	4.62	.1155
313.15	4.58	.1145
323.16	4.54	.1135
333.15	4.51	.11275

System: 1-hexene + 1-hexyl-3-methylimidazolium trifluoromethanesulfonate; phases: Liquid
Fixed: Pressure, kPa = 101
Fixed: Mole fraction of 1-hexene = 0
Property: Activity coefficient of 1-hexene (Liquid); method: dilutor technique
Temperature, K	Activity coefficient of 1-hexene	uncertainty
303.18	7.4	.185
313.15	7.23	.18075
323.16	7.03	.17575
333.15	6.86	.1715

System: 1-hexene + 1-hexyl-3-methylimidazolium trifluoromethanesulfonate; phases: Liquid
Fixed: Temperature, K = 413.15
Fixed: Pressure, kPa = 101
Property: Excess molar enthalpy (molar enthalpy of mixing), kJ/mol (Liquid); method: Flow calorimetry
Mole fraction of 1-hexene	Excess molar enthalpy (molar enthalpy of mixing), kJ/mol	uncertainty
.0407	.0337	.000337
.0604	.0488	.000488
.0797	.0666	.000666
.0987	.0858	.000858
.1172	.1023	.001023
.1353	.1179	.001179

System: 1-heptene + 1-hexyl-3-methylimidazolium trifluoromethanesulfonate; phases: Liquid
Fixed: Pressure, kPa = 101
Fixed: Mole fraction of 1-heptene = 0
Property: Activity coefficient of 1-heptene (Liquid); method: dilutor technique
Temperature, K	Activity coefficient of 1-heptene	uncertainty
303.16	10.96	.274
313.17	10.6	.265
323.15	10.4	.26
333.18	10.07	.25175

System: 1-heptene + 1-hexyl-3-methylimidazolium trifluoromethanesulfonate; phases: Liquid
Fixed: Pressure, kPa = 101
Fixed: Mole fraction of 1-heptene = 0
Property: Activity coefficient of 1-heptene (Liquid); method: Chromatography
Temperature, K	Activity coefficient of 1-heptene	uncertainty
303.14	11.2	.336
313.15	10.85	.3255
323.15	10.6	.318
333.14	10.4	.312

System: 1-octene + 1-hexyl-3-methylimidazolium trifluoromethanesulfonate; phases: Liquid
Fixed: Pressure, kPa = 101
Fixed: Mole fraction of 1-octene = 0
Property: Activity coefficient of 1-octene (Liquid); method: dilutor technique
Temperature, K	Activity coefficient of 1-octene	uncertainty
303.16	15	.375
313.17	14.51	.36275
323.15	14.19	.35475
333.18	13.72	.343

System: 1-octene + 1-hexyl-3-methylimidazolium trifluoromethanesulfonate; phases: Liquid
Fixed: Pressure, kPa = 101
Fixed: Mole fraction of 1-octene = 0
Property: Activity coefficient of 1-octene (Liquid); method: Chromatography
Temperature, K	Activity coefficient of 1-octene	uncertainty
303.14	15.41	.4623
313.15	15.02	.4506
323.15	14.58	.4374
333.14	14.28	.4284

System: hexane + 1-octyl-3-methylimidazolium trifluoromethanesulfonate; phases: Liquid
Fixed: Pressure, kPa = 101
Fixed: Mole fraction of hexane = 0
Property: Activity coefficient of hexane (Liquid); method: dilutor technique
Temperature, K	Activity coefficient of hexane	uncertainty
303.15	7.25	.18125
323.16	7.15	.17875
333.18	7.09	.17725

System: heptane + 1-octyl-3-methylimidazolium trifluoromethanesulfonate; phases: Liquid
Fixed: Pressure, kPa = 101
Fixed: Mole fraction of heptane = 0
Property: Activity coefficient of heptane (Liquid); method: dilutor technique
Temperature, K	Activity coefficient of heptane	uncertainty
303.16	9.59	.23975
313.14	9.42	.2355
323.14	9.26	.2315
333.11	9.06	.2265

System: octane + 1-octyl-3-methylimidazolium trifluoromethanesulfonate; phases: Liquid
Fixed: Pressure, kPa = 101
Fixed: Mole fraction of octane = 0
Property: Activity coefficient of octane (Liquid); method: dilutor technique
Temperature, K	Activity coefficient of octane	uncertainty
303.16	12.57	.31425
313.14	12.21	.30525
323.14	11.99	.29975
333.11	11.65	.29125

System: 1-heptene + 1-octyl-3-methylimidazolium trifluoromethanesulfonate; phases: Liquid
Fixed: Pressure, kPa = 101
Fixed: Mole fraction of 1-heptene = 0
Property: Activity coefficient of 1-heptene (Liquid); method: dilutor technique
Temperature, K	Activity coefficient of 1-heptene	uncertainty
303.21	6.11	.15275
313.15	6.03	.15075
323.14	5.97	.14925
333.12	5.89	.14725

System: 1-octene + 1-octyl-3-methylimidazolium trifluoromethanesulfonate; phases: Liquid
Fixed: Pressure, kPa = 101
Fixed: Mole fraction of 1-octene = 0
Property: Activity coefficient of 1-octene (Liquid); method: dilutor technique
Temperature, K	Activity coefficient of 1-octene	uncertainty
303.21	8	.2
313.15	7.86	.1965
323.14	7.79	.19475
333.12	7.66	.1915

System: 1-octene + 1-octyl-3-methylimidazolium trifluoromethanesulfonate; phases: Liquid, Gas
Fixed: Temperature, K = 363.15
Property: Vapor or sublimation pressure, kPa (Liquid); method: Closed cell (Static) method
Mole fraction of 1-octene	Vapor or sublimation pressure, kPa	uncertainty
.0063	1.672	.0000836
.0176	4.396	.0002198
.02897	7.095	.00035475
.03775	8.964	.0004482
.0451	10.6	.00053
.05327	12.22	.000611
.06383	14.4	.00072
.07109	15.73	.0007865
.0852	18.41	.0009205
.11224	23.09	.0011545
.1618	30.24	.001512

System: 1-hexene + 1-octyl-3-methylimidazolium trifluoromethanesulfonate; phases: Liquid
Fixed: Pressure, kPa = 101
Fixed: Mole fraction of 1-hexene = 0
Property: Activity coefficient of 1-hexene (Liquid); method: dilutor technique
Temperature, K	Activity coefficient of 1-hexene	uncertainty
303.13	4.68	.117
313.13	4.61	.11525
323.16	4.57	.11425
333.16	4.53	.11325

System: 1-hexene + 1-octyl-3-methylimidazolium trifluoromethanesulfonate; phases: Liquid, Gas
Fixed: Temperature, K = 363.15
Property: Vapor or sublimation pressure, kPa (Liquid); method: Closed cell (Static) method
Mole fraction of 1-hexene	Vapor or sublimation pressure, kPa	uncertainty
.0169	16.19	.005
.03401	32.08	.005
.0519	48.14	.005
.0677	61.56	.005
.08269	73.69	.005
.09856	85.15	.005
.11484	97.75	.005
.13064	109	.005
.14603	119.8	.005
.175	138.4	.005
.22234	165.6	.005
.29643	198.8	.005

System: 2,2,4-trimethylpentane + 1-butyl-3-methylimidazolium trifluoromethanesulfonate; phases: Liquid, Gas
Fixed: Temperature, K = 363.15
Property: Vapor or sublimation pressure, kPa (Liquid); method: Closed cell (Static) method
Mole fraction of 2,2,4-trimethylpentane	Vapor or sublimation pressure, kPa	uncertainty
.00517	11.86	.005
.00979	22.61	.005
.01388	31.84	.005
.01842	41.89	.005
.03102	65.21	.005

System: decane + 1-butyl-3-methylimidazolium trifluoromethanesulfonate; phases: Liquid, Gas
Fixed: Temperature, K = 363.15
Property: Vapor or sublimation pressure, kPa (Liquid); method: Closed cell (Static) method
Mole fraction of decane	Vapor or sublimation pressure, kPa	uncertainty
.00397	2	.0001
.008	3.923	.00019615
.01225	5.424	.0002712
.0222	6.202	.0003101

System: 1-nonene + 1-butyl-3-methylimidazolium trifluoromethanesulfonate; phases: Liquid, Gas
Fixed: Temperature, K = 363.15
Property: Vapor or sublimation pressure, kPa (Liquid); method: Closed cell (Static) method
Mole fraction of 1-nonene	Vapor or sublimation pressure, kPa	uncertainty
.00458	2.599	.00012995
.01	5.645	.00028225
.01493	8.276	.0004138
.02448	12.39	.0006195
.03925	16.34	.000817

System: 1-nonene + 1-octyl-3-methylimidazolium trifluoromethanesulfonate; phases: Liquid, Gas
Fixed: Temperature, K = 363.15
Property: Vapor or sublimation pressure, kPa (Liquid); method: Closed cell (Static) method
Mole fraction of 1-nonene	Vapor or sublimation pressure, kPa	uncertainty
.00468	.785	.00003925
.00957	1.584	.0000792
.01415	2.209	.00011045
.01895	2.885	.00014425
.02347	3.476	.0001738
.02809	4.087	.00020435
.03722	5.253	.00026265
.04601	6.314	.0003157
.059	7.76	.000388
.08087	9.928	.0004964
.12452	13.45	.0006725

System: octane + 1-octene + 1-octyl-3-methylimidazolium trifluoromethanesulfonate; phases: Gas, Liquid
Fixed: Mole fraction of 1-octyl-3-methylimidazolium trifluoromethanesulfonate = .9
Fixed: Temperature, K = 342.45
Property: Mole fraction of 1-octene (Gas); method: Chromatography
Mole fraction of 1-octene	Mole fraction of 1-octene	uncertainty
.004667	.0428	.0001284
.01006	.0946	.0002838
.01555	.1437	.0004311
.018	.1684	.0005052
.02785	.2646	.0007938
.03812	.3572	.0010716
.04693	.4488	.0013464
.05497	.5441	.0016323
.06465	.6364	.0019092
.07333	.7463	.0022389
.08453	.8744	.0026232
