Measured thermophysical data. Ternary liquid-liquid equilibrium: Nitric acid - water - anisole/4-methyl anisole
Source: Fluid Phase Equilib., 2012, 10.1016/j.fluid.2011.10.022
Compound 1: water, H2O, purity 99.8%
Compound 2: hydrogen nitrate, HNO3, purity 98%
Compound 3: methoxybenzene, C7H8O, purity 99.4%
Compound 4: 1-methoxy-4-methylbenzene, C8H10O, purity 99.6%

System: methoxybenzene + hydrogen nitrate + water; phases: Liquid mixture 2, Liquid mixture 1
Fixed: Pressure, kPa = 101
Fixed: Temperature, K = 298.15
Property: Mole fraction of methoxybenzene (Liquid mixture 2); method: Titration method
Property: Mole fraction of methoxybenzene (Liquid mixture 1); method: Titration method
Property: Mole fraction of water (Liquid mixture 1); method: Titration method
Mole fraction of water	Mole fraction of methoxybenzene	uncertainty	Mole fraction of methoxybenzene	uncertainty	Mole fraction of water	uncertainty
.960547	.0000352	.001	.996397	.00001	.00266	.00001
.876191	.001695	.001	.975023	.00001	.00812	.00001
.816533	.002434	.001	.920251	.00001	.02367	.00001
.766597	.002379	.001	.871632	.00001	.04383	.00001
.709171	.00575	.001	.832521	.00001	.06066	.00001

System: 1-methoxy-4-methylbenzene + hydrogen nitrate + water; phases: Liquid mixture 1, Liquid mixture 2
Fixed: Temperature, K = 298.15
Fixed: Pressure, kPa = 101
Property: Mole fraction of water (Liquid mixture 1); method: Titration method
Property: Mole fraction of water (Liquid mixture 2); method: Titration method
Property: Mole fraction of 1-methoxy-4-methylbenzene (Liquid mixture 2); method: Titration method
Mole fraction of 1-methoxy-4-methylbenzene	Mole fraction of water	uncertainty	Mole fraction of water	uncertainty	Mole fraction of 1-methoxy-4-methylbenzene	uncertainty
.991596	.00342	.00001	.986873	.00001	.000272	.001
.989174	.005	.00001	.981082	.00001	.000638	.001
.988135	.00548	.00001	.974282	.00001	.000765	.001
.985959	.00649	.00001	.969098	.00001	.001507	.001
.983848	.00746	.00001	.961168	.00001	.001886	.001

System: 1-methoxy-4-methylbenzene + water; phases: Liquid mixture 1, Liquid mixture 2
Fixed: Pressure, kPa = 101
Property: Mole fraction of water (Liquid mixture 1); method: Titration method
Temperature, K	Mole fraction of water	uncertainty
298.15	.005599	.001

System: 1-methoxy-4-methylbenzene + water; phases: Liquid mixture 2, Liquid mixture 1
Fixed: Pressure, kPa = 101
Property: Mole fraction of 1-methoxy-4-methylbenzene (Liquid mixture 2); method: UV spectrophotometer
Temperature, K	Mole fraction of 1-methoxy-4-methylbenzene	uncertainty
298.15	.000019366	.000001
