Measured thermophysical data. The diffusion coefficient of H2S in liquid sulfur
Source: Fluid Phase Equilib., 2011, 10.1016/j.fluid.2011.04.010
Compound 1: hydrogen sulfide, H2S, purity 99.6%
Compound 2: sulfur, S, purity 99.95%

System: sulfur + hydrogen sulfide; phases: Liquid, Gas
Property: Binary diffusion coefficient, m2/s (Liquid); method: pressure decay
Temperature, K	Pressure, kPa	Binary diffusion coefficient, m2/s	uncertainty
403	184	0.000000017	.0000000017
423	149	0.0000000291	.00000000291
