Measured thermophysical data. Measurement and prediction of tie-line data for mixtures  of (water + 1-propanol + diisopropyl ether): LLE diagrams  as a function of temperature
Source: Fluid Phase Equilib., 2009, 10.1016/j.fluid.2008.11.014
Compound 1: water, H2O
Compound 2: 1-propanol, C3H8O
Compound 3: isopropyl ether, C6H14O

System: 1-propanol; phases: Liquid
Fixed: Pressure, kPa = 101.325
Property: Mass density, kg/m3 (Liquid); method: Vibrating tube method
Temperature, K	Mass density, kg/m3	uncertainty
298.2	799.62	.01

System: 1-propanol; phases: Liquid
Fixed: Pressure, kPa = 101.325
Property: Refractive index (Na D-line) (Liquid); method: Standard Abbe refractometry
Temperature, K	Refractive index (Na D-line)	uncertainty
298.2	1.3835	.00013835

System: isopropyl ether; phases: Liquid
Fixed: Pressure, kPa = 101.325
Property: Mass density, kg/m3 (Liquid); method: Vibrating tube method
Temperature, K	Mass density, kg/m3	uncertainty
298.2	718.79	.01

System: isopropyl ether; phases: Liquid
Fixed: Pressure, kPa = 101.325
Property: Refractive index (Na D-line) (Liquid); method: Standard Abbe refractometry
Temperature, K	Refractive index (Na D-line)	uncertainty
298.2	1.3653	.00013653

System: 1-propanol + isopropyl ether + water; phases: Liquid mixture 1, Liquid mixture 2
Fixed: Pressure, kPa = 101
Property: Mass fraction of 1-propanol (Liquid mixture 1); method: Chromatography
Property: Mole fraction of water (Liquid mixture 2); method: Chromatography
Property: Mole fraction of 1-propanol (Liquid mixture 2); method: Chromatography
Temperature, K	Mole fraction of water	Mass fraction of 1-propanol	uncertainty	Mole fraction of water	uncertainty	Mole fraction of 1-propanol	uncertainty
298.2	.9984	0		.0016		0	
298.2	.9288	.064		.005		.0889	
298.2	.855	.128		.011		.1899	
298.2	.825	.1521		.0175		.2528	
298.2	.7591	.1992		.048		.3208	
298.2	.6177	.2887		.075		.341	
298.2	.5095	.3405		.0936		.351	
308.2	.9979	0		.0278		0	
308.2	.9726	.025		.058		.1026	
308.2	.9476	.0495		.1106		.2003	
308.2	.9193	.0778		.1591		.2648	
308.2	.845	.1521		.2187		.3127	
308.2	.788	.206		.264		.338	
308.2	.7019	.271		.3318		.3614	
313.2	.9962	0		.0338		0	
313.2	.928	.0677		.0464		.0472	
313.2	.8841	.1075		.0708		.1097	
313.2	.8401	.145		.088		.144	
313.2	.7901	.1872		.1252		.2065	
313.2	.7324	.2288		.1465		.2381	
313.2	.6307	.2987		.179		.2802	

System: isopropyl ether + water; phases: Liquid mixture 1, Liquid mixture 2
Property: Mole fraction of water (Liquid mixture 1); method: Chromatography
Temperature, K	Pressure, kPa	Mole fraction of water	uncertainty
298.2	101	.9984	
308.2	101	.9979	
313.2	101	.9962	

System: isopropyl ether + water; phases: Liquid mixture 2, Liquid mixture 1
Property: Mole fraction of water (Liquid mixture 2); method: Chromatography
Temperature, K	Pressure, kPa	Mole fraction of water	uncertainty
298.2	101	.0016	
308.2	101	.0278	
313.2	101	.0338	
