Measured thermophysical data. Liquid-liquid equilibria of 1-octyl-3-methylimidazolium hexafluorophosphate with 1-propanol or tert-butanol in the critical region
Source: Fluid Phase Equilib., 2014, 10.1016/j.fluid.2013.12.022
Compound 1: 1-octyl-3-methylimidazolium hexafluorophosphate, C12H23F6N2P, purity 99%
Compound 2: 1-propanol, C3H8O, purity 99.9%
Compound 3: tert-butanol, C4H10O, purity 99.9%

System: 1-propanol + 1-octyl-3-methylimidazolium hexafluorophosphate; phases: Liquid mixture 1, Liquid mixture 2
Property: Mole fraction of 1-octyl-3-methylimidazolium hexafluorophosphate (Liquid mixture 1); method: Index of refraction calibration data
Temperature, K	Pressure, kPa	Mole fraction of 1-octyl-3-methylimidazolium hexafluorophosphate	uncertainty
307.973	85	.074	.002
307.97	85	.072	.002
307.961	85	.069	.002
307.956	85	.068	.002
307.954	85	.067	.002
307.949	85	.066	.002
307.94	85	.064	.002
307.932	85	.063	.002
307.921	85	.062	.002
307.906	85	.06	.002
307.891	85	.059	.002
307.868	85	.058	.002
307.852	85	.056	.002
307.823	85	.055	.002
307.798	85	.053	.002
307.764	85	.052	.002
307.729	85	.05	.002
307.692	85	.049	.002
307.638	85	.048	.002
307.573	85	.046	.002
307.491	85	.044	.002
307.399	85	.042	.002
307.297	85	.04	.002
307.178	85	.038	.002
307.052	85	.036	.002
306.911	85	.035	.002
306.758	85	.033	.002
306.592	85	.031	.002
306.417	85	.03	.002
306.225	85	.029	.002
306.027	85	.028	.002
305.818	85	.026	.002
305.597	85	.025	.002
305.354	85	.024	.002
305.084	85	.023	.002
304.787	85	.021	.002
304.472	85	.02	.002
304.125	85	.019	.002
303.726	85	.018	.002
303.269	85	.017	.002
302.752	85	.016	.002
302.247	85	.016	.002
301.672	85	.014	.002
300.885	85	.012	.002
300.161	85	.012	.002
299.16	85	.01	.002
298.094	85	.01	.002

System: 1-propanol + 1-octyl-3-methylimidazolium hexafluorophosphate; phases: Liquid mixture 2, Liquid mixture 1
Property: Mole fraction of 1-octyl-3-methylimidazolium hexafluorophosphate (Liquid mixture 2); method: Index of refraction calibration data
Temperature, K	Pressure, kPa	Mole fraction of 1-octyl-3-methylimidazolium hexafluorophosphate	uncertainty
307.973	85	.094	.002
307.97	85	.096	.002
307.961	85	.1	.002
307.956	85	.101	.002
307.954	85	.102	.002
307.949	85	.103	.002
307.94	85	.105	.002
307.932	85	.107	.002
307.921	85	.108	.002
307.906	85	.11	.002
307.891	85	.112	.002
307.868	85	.114	.002
307.852	85	.116	.002
307.823	85	.118	.002
307.798	85	.12	.002
307.764	85	.122	.002
307.729	85	.126	.002
307.692	85	.127	.002
307.638	85	.13	.002
307.573	85	.133	.002
307.491	85	.138	.002
307.399	85	.141	.002
307.297	85	.144	.002
307.178	85	.149	.002
307.052	85	.153	.002
306.911	85	.158	.002
306.758	85	.161	.002
306.592	85	.165	.002
306.417	85	.17	.002
306.225	85	.173	.002
306.027	85	.176	.002
305.818	85	.181	.002
305.597	85	.186	.002
305.354	85	.19	.002
305.084	85	.195	.002
304.787	85	.199	.002
304.472	85	.204	.002
304.125	85	.208	.002
303.726	85	.214	.002
303.269	85	.222	.002
302.752	85	.227	.002
302.247	85	.232	.002
301.672	85	.24	.002
300.885	85	.249	.002
300.161	85	.258	.002
299.16	85	.266	.002
298.094	85	.277	.002

System: 1-propanol + 1-octyl-3-methylimidazolium hexafluorophosphate; phases: Liquid
Fixed: Pressure, kPa = 85
Fixed: Wavelength, nm = 6328
Property: Refractive index (other wavelength) (Liquid); method: minimum deviation angle technique
Temperature, K	Mole fraction of 1-octyl-3-methylimidazolium hexafluorophosphate	Refractive index (other wavelength)	uncertainty
298.186	0	1.3818	.0001
304.197	0	1.3793	.0001
310.251	0	1.3769	.0001
308.323	.1	1.3904	.0001
311.242	.1	1.3893	.0001
307.29	.2	1.3986	.0001
310.26	.2	1.3976	.0001
313.235	.2	1.3966	.0001
305.17	.3	1.4047	.0001
308.205	.3	1.4037	.0001
311.207	.3	1.4027	.0001
305.27	.399	1.4084	.0001
308.25	.399	1.4075	.0001
311.206	.399	1.4066	.0001
305.167	.5	1.4114	.0001
308.185	.5	1.4105	.0001
311.221	.5	1.4096	.0001
305.213	.6	1.4137	.0001
308.266	.6	1.4128	.0001
311.203	.6	1.4119	.0001
305.229	.698	1.4154	.0001
308.238	.698	1.4146	.0001
311.245	.698	1.4138	.0001
305.22	.801	1.4171	.0001
308.207	.801	1.4162	.0001
311.198	.801	1.4154	.0001
305.257	.899	1.4184	.0001
308.228	.899	1.4175	.0001
311.205	.899	1.4167	.0001
298.186	1	1.4215	.0001
304.197	1	1.4199	.0001
310.251	1	1.4183	.0001
300.196	0	1.381	.0001
306.222	0	1.3785	.0001
312.243	0	1.376	.0001
309.231	.1	1.3901	.0001
312.258	.1	1.3889	.0001
308.257	.2	1.3983	.0001
311.253	.2	1.3973	.0001
306.197	.3	1.4044	.0001
309.195	.3	1.4034	.0001
312.17	.3	1.4024	.0001
306.204	.399	1.4081	.0001
309.181	.399	1.4072	.0001
312.17	.399	1.4063	.0001
306.191	.5	1.4111	.0001
309.189	.5	1.4102	.0001
312.205	.5	1.4093	.0001
306.178	.6	1.4134	.0001
309.208	.6	1.4125	.0001
312.188	.6	1.4116	.0001
306.229	.698	1.4151	.0001
309.22	.698	1.4143	.0001
312.188	.698	1.4135	.0001
306.196	.801	1.4168	.0001
309.228	.801	1.416	.0001
312.196	.801	1.4151	.0001
306.245	.899	1.4181	.0001
309.206	.899	1.4173	.0001
312.196	.899	1.4164	.0001
300.196	1	1.421	.0001
306.222	1	1.4193	.0001
312.243	1	1.4178	.0001
302.192	0	1.3802	.0001
308.236	0	1.3777	.0001
310.232	.1	1.3897	.0001
313.237	.1	1.3886	.0001
309.276	.2	1.3979	.0001
312.198	.2	1.397	.0001
307.188	.3	1.404	.0001
310.111	.3	1.4031	.0001
307.214	.399	1.4078	.0001
310.293	.399	1.4069	.0001
307.348	.5	1.4108	.0001
310.203	.5	1.4099	.0001
307.208	.6	1.4131	.0001
310.19	.6	1.4122	.0001
307.236	.698	1.4148	.0001
310.227	.698	1.414	.0001
307.187	.801	1.4165	.0001
310.246	.801	1.4157	.0001
307.237	.899	1.4178	.0001
310.207	.899	1.417	.0001
302.192	1	1.4204	.0001
308.236	1	1.4188	.0001

System: 1-propanol + 1-octyl-3-methylimidazolium hexafluorophosphate; phases: Liquid mixture 1, Liquid mixture 2
Property: Upper consolute temperature, K (Liquid mixture 1); method: Equal volume method
Pressure, kPa	Upper consolute temperature, K	uncertainty
85	308	.1

System: 1-propanol + 1-octyl-3-methylimidazolium hexafluorophosphate; phases: Liquid mixture 1, Liquid mixture 2
Property: Upper consolute composition: mole fraction of 1-octyl-3-methylimidazolium hexafluorophosphate (Liquid mixture 1); method: Equal volume method
Pressure, kPa	Upper consolute composition: mole fraction of 1-octyl-3-methylimidazolium hexafluorophosphate	uncertainty
85	.084	.001

System: tert-butanol + 1-octyl-3-methylimidazolium hexafluorophosphate; phases: Liquid mixture 1, Liquid mixture 2
Property: Mole fraction of 1-octyl-3-methylimidazolium hexafluorophosphate (Liquid mixture 1); method: Index of refraction calibration data
Temperature, K	Pressure, kPa	Mole fraction of 1-octyl-3-methylimidazolium hexafluorophosphate	uncertainty
320.568	85	.063	.002
320.566	85	.063	.002
320.564	85	.063	.002
320.562	85	.063	.002
320.56	85	.061	.002
320.556	85	.059	.002
320.55	85	.058	.002
320.544	85	.058	.002
320.536	85	.058	.002
320.52	85	.057	.002
320.507	85	.055	.002
320.499	85	.054	.002
320.483	85	.053	.002
320.459	85	.051	.002
320.436	85	.05	.002
320.406	85	.049	.002
320.364	85	.047	.002
320.324	85	.046	.002
320.271	85	.044	.002
320.211	85	.043	.002
320.143	85	.041	.002
320.059	85	.04	.002
319.955	85	.039	.002
319.852	85	.038	.002
319.727	85	.036	.002
319.56	85	.034	.002
319.377	85	.033	.002
319.167	85	.031	.002
318.92	85	.029	.002
318.64	85	.027	.002
318.333	85	.026	.002
317.982	85	.024	.002
317.61	85	.023	.002
317.16	85	.021	.002
316.639	85	.02	.002
316.05	85	.018	.002
315.37	85	.017	.002
314.576	85	.015	.002
313.676	85	.014	.002
312.662	85	.012	.002
311.527	85	.011	.002
310.251	85	.009	.002
308.831	85	.008	.002

System: tert-butanol + 1-octyl-3-methylimidazolium hexafluorophosphate; phases: Liquid mixture 2, Liquid mixture 1
Property: Mole fraction of 1-octyl-3-methylimidazolium hexafluorophosphate (Liquid mixture 2); method: Index of refraction calibration data
Temperature, K	Pressure, kPa	Mole fraction of 1-octyl-3-methylimidazolium hexafluorophosphate	uncertainty
320.568	85	.076	.002
320.566	85	.079	.002
320.564	85	.08	.002
320.562	85	.08	.002
320.56	85	.081	.002
320.556	85	.082	.002
320.55	85	.083	.002
320.544	85	.085	.002
320.536	85	.087	.002
320.52	85	.087	.002
320.507	85	.089	.002
320.499	85	.092	.002
320.483	85	.092	.002
320.459	85	.093	.002
320.436	85	.095	.002
320.406	85	.097	.002
320.364	85	.099	.002
320.324	85	.1	.002
320.271	85	.102	.002
320.211	85	.105	.002
320.143	85	.107	.002
320.059	85	.109	.002
319.955	85	.112	.002
319.852	85	.114	.002
319.727	85	.117	.002
319.56	85	.119	.002
319.377	85	.123	.002
319.167	85	.126	.002
318.92	85	.131	.002
318.64	85	.135	.002
318.333	85	.138	.002
317.982	85	.143	.002
317.61	85	.146	.002
317.16	85	.152	.002
316.639	85	.156	.002
316.05	85	.16	.002
315.37	85	.166	.002
314.576	85	.172	.002
313.676	85	.178	.002
312.662	85	.185	.002
311.527	85	.192	.002
310.251	85	.199	.002
308.831	85	.206	.002

System: tert-butanol + 1-octyl-3-methylimidazolium hexafluorophosphate; phases: Liquid
Fixed: Pressure, kPa = 85
Fixed: Wavelength, nm = 6328
Property: Refractive index (other wavelength) (Liquid); method: minimum deviation angle technique
Temperature, K	Mole fraction of 1-octyl-3-methylimidazolium hexafluorophosphate	Refractive index (other wavelength)	uncertainty
309.162	0	1.3775	.0001
318.149	0	1.3725	.0001
321.174	.1	1.3834	.0001
325.825	.1	1.3814	.0001
321.372	.2	1.3919	.0001
325.951	.2	1.39	.0001
321.377	.299	1.3978	.0001
325.808	.299	1.3963	.0001
317.381	.398	1.4034	.0001
323.841	.398	1.4013	.0001
319.127	.5	1.4064	.0001
324.074	.5	1.4049	.0001
319.627	.601	1.4088	.0001
324.997	.601	1.4073	.0001
317.226	.699	1.4113	.0001
323.316	.699	1.4097	.0001
317.354	.803	1.4134	.0001
323.321	.803	1.4118	.0001
317.355	.991	1.4149	.0001
323.229	.991	1.4134	.0001
312.062	1	1.4179	.0001
319.2	1	1.416	.0001
325.377	1	1.4143	.0001
312.045	0	1.3759	.0001
321.108	0	1.3708	.0001
322.971	.1	1.3826	.0001
327.968	.1	1.3804	.0001
322.787	.2	1.3912	.0001
327.357	.2	1.3894	.0001
322.779	.299	1.3972	.0001
327.474	.299	1.3957	.0001
319.308	.398	1.4028	.0001
325.781	.398	1.4007	.0001
320.766	.5	1.4059	.0001
325.92	.5	1.4043	.0001
321.582	.601	1.4083	.0001
327.127	.601	1.4066	.0001
319.247	.699	1.4107	.0001
325.303	.699	1.4093	.0001
319.259	.803	1.4129	.0001
325.354	.803	1.4113	.0001
319.297	.991	1.4144	.0001
325.291	.991	1.4128	.0001
314.468	1	1.4173	.0001
321.319	1	1.4155	.0001
327.406	1	1.4138	.0001
315.179	0	1.3742	.0001
324.421	0	1.3689	.0001
324.432	.1	1.3819	.0001
329.184	.1	1.3797	.0001
324.293	.2	1.3906	.0001
329.18	.2	1.3887	.0001
324.294	.299	1.3967	.0001
329.263	.299	1.3951	.0001
321.457	.398	1.4021	.0001
327.718	.398	1.4	.0001
322.416	.5	1.4054	.0001
327.737	.5	1.4037	.0001
323.789	.601	1.4077	.0001
328.85	.601	1.4061	.0001
321.4	.699	1.4102	.0001
327.108	.699	1.4088	.0001
321.34	.803	1.4124	.0001
327.116	.803	1.4108	.0001
321.279	.991	1.4139	.0001
327.398	.991	1.4123	.0001
316.92	1	1.4166	.0001
323.304	1	1.4149	.0001

System: tert-butanol + 1-octyl-3-methylimidazolium hexafluorophosphate; phases: Liquid mixture 1, Liquid mixture 2
Property: Upper consolute temperature, K (Liquid mixture 1); method: Equal volume method
Pressure, kPa	Upper consolute temperature, K	uncertainty
85	320.6	.1

System: tert-butanol + 1-octyl-3-methylimidazolium hexafluorophosphate; phases: Liquid mixture 1, Liquid mixture 2
Property: Upper consolute composition: mole fraction of 1-octyl-3-methylimidazolium hexafluorophosphate (Liquid mixture 1); method: Equal volume method
Pressure, kPa	Upper consolute composition: mole fraction of 1-octyl-3-methylimidazolium hexafluorophosphate	uncertainty
85	.068	.001
