Measured thermophysical data. Thermodynamic analysis and enthalpy-entropy compensation for the solubility of indomethacin in aqueous and non-aqueous mixtures
Source: Fluid Phase Equilib., 2011, 10.1016/j.fluid.2011.06.016
Compound 1: 1-(4-chlorobenzoyl)-5-methoxy-2-methyl-1H-indole-3-acetic acid, C19H16ClNO4, purity 99%
Compound 2: ethyl ethanoate, C4H8O2, purity 99%
Compound 3: ethanol, C2H6O, purity 99%
Compound 4: water, H2O, purity 99.9%

System: 1-(4-chlorobenzoyl)-5-methoxy-2-methyl-1H-indole-3-acetic acid; phases: Crystal, Liquid, Air at 1 atmosphere
Property: Molar enthalpy of transition or fusion, kJ/mol (Crystal); method: DSC/DTA
Molar enthalpy of transition or fusion, kJ/mol	uncertainty
55.1	.2755

System: 1-(4-chlorobenzoyl)-5-methoxy-2-methyl-1H-indole-3-acetic acid; phases: Crystal, Liquid
Property: Solid-liquid equilibrium temperature, K (Crystal); method: DSC/DTA
Pressure, kPa	Solid-liquid equilibrium temperature, K	uncertainty
101.325	433	.1

System: 1-(4-chlorobenzoyl)-5-methoxy-2-methyl-1H-indole-3-acetic acid + ethanol + water; phases: Crystal, Liquid mixture 1
Fixed: Pressure, kPa = 101
Property: Mole fraction of 1-(4-chlorobenzoyl)-5-methoxy-2-methyl-1H-indole-3-acetic acid (Crystal); method: UV-Vis Spectroscopy
Solvent: Mass fraction of ethanol	Temperature, K	Mole fraction of 1-(4-chlorobenzoyl)-5-methoxy-2-methyl-1H-indole-3-acetic acid	uncertainty
0	293.15	.000000781	.000000032
.1	293.15	.000001217	.000000044
.2	293.15	.000002409	.00000005
.3	293.15	.0000085	.00000044
.4	293.15	.0000342	.0000016
.5	293.15	.0001196	.0000044
.6	293.15	.0003345	.0000028
.7	293.15	.000796	.000014
.8	293.15	.001695	.000058
.9	293.15	.0027	.00012
1	293.15	.00332	.00016
0	298.15	.000000932	.000000046
.1	298.15	.0000015	.00000008
.2	298.15	.00000306	.00000016
.3	298.15	.00001146	.00000046
.4	298.15	.0000453	.000001
.5	298.15	.00016	.000008
.6	298.15	.000463	.00002
.7	298.15	.001056	.000058
.8	298.15	.00218	.00008
.9	298.15	.0034	.00012
1	298.15	.00417	.0001
0	303.15	.000001104	.000000044
.1	303.15	.00000188	.00000008
.2	303.15	.00000384	.0000002
.3	303.15	.0000153	.0000006
.4	303.15	.0000639	.0000014
.5	303.15	.000211	.000008
.6	303.15	.000646	.000036
.7	303.15	.00143	.00006
.8	303.15	.00278	.00012
.9	303.15	.00426	.0002
1	303.15	.004892	.000048
0	308.15	.000001274	.000000042
.1	308.15	.00000234	.00000008
.2	308.15	.0000049	.00000018
.3	308.15	.0000195	.000001
.4	308.15	.000084	.0000034
.5	308.15	.00029	.000006
.6	308.15	.000807	.000042
.7	308.15	.0018	.00008
.8	308.15	.00345	.00016
.9	308.15	.00522	.0003
1	308.15	.00616	.00008
0	313.15	.00000152	.00000008
.1	313.15	.00000281	.00000012
.2	313.15	.00000657	.00000032
.3	313.15	.0000273	.0000012
.4	313.15	.0001134	.0000042
.5	313.15	.0004035	.000004
.6	313.15	.00106	.00006
.7	313.15	.00224	.00012
.8	313.15	.004285	.00005
.9	313.15	.00621	.00032
1	313.15	.007411	.000058

System: 1-(4-chlorobenzoyl)-5-methoxy-2-methyl-1H-indole-3-acetic acid + ethanol + water; phases: Liquid
Fixed: Pressure, kPa = 101
Property: Mass density, kg/m3 (Liquid); method: Vibrating tube method
Temperature, K	Solvent: Mass fraction of ethanol	Mole fraction of 1-(4-chlorobenzoyl)-5-methoxy-2-methyl-1H-indole-3-acetic acid	Mass density, kg/m3	uncertainty
293.15	0	.000000781	998.2	.3
293.15	.1	.000001217	982.1	.3
293.15	.2	.000002409	968.9	.3
293.15	.3	.0000085	954.7	.3
293.15	.4	.0000342	935.5	.3
293.15	.5	.0001196	914.5	.3
293.15	.6	.0003345	892.5	.3
293.15	.7	.000796	870.3	.3
293.15	.8	.001695	847.7	.3
293.15	.9	.0027	824	.3
293.15	1	.00332	798.8	.3
298.15	0	.000000932	997	.3
298.15	.1	.0000015	980.6	.3
298.15	.2	.00000306	966.5	.3
298.15	.3	.00001146	951.6	.3
298.15	.4	.0000453	932.3	.3
298.15	.5	.00016	912.1	.3
298.15	.6	.000463	889.2	.3
298.15	.7	.001056	868.2	.3
298.15	.8	.00218	846.9	.3
298.15	.9	.0034	825.9	.3
298.15	1	.00417	796.6	.3
303.15	0	.000001104	995.4	.3
303.15	.1	.00000188	978.7	.3
303.15	.2	.00000384	964.1	.3
303.15	.3	.0000153	948.1	.3
303.15	.4	.0000639	928.5	.3
303.15	.5	.000211	908.1	.3
303.15	.6	.000646	885.4	.3
303.15	.7	.00143	865.1	.3
303.15	.8	.00278	844.4	.3
303.15	.9	.00426	822.8	.3
303.15	1	.004892	794.3	.3
308.15	0	.000001274	994	.3
308.15	.1	.00000234	977	.3
308.15	.2	.0000049	961.6	.3
308.15	.3	.0000195	944.7	.3
308.15	.4	.000084	924.9	.3
308.15	.5	.00029	904	.3
308.15	.6	.000807	881.9	.3
308.15	.7	.0018	861.3	.3
308.15	.8	.00345	841.5	.3
308.15	.9	.00522	820.6	.3
308.15	1	.00616	793.2	.3
313.15	0	.00000152	992.2	.3
313.15	.1	.00000281	974.9	.3
313.15	.2	.00000657	958.6	.3
313.15	.3	.0000273	940.7	.3
313.15	.4	.0001134	920.9	.3
313.15	.5	.0004035	899.6	.3
313.15	.6	.00106	878.6	.3
313.15	.7	.00224	858.4	.3
313.15	.8	.004285	839	.3
313.15	.9	.00621	818.3	.3
313.15	1	.007411	792.1	.3

System: 1-(4-chlorobenzoyl)-5-methoxy-2-methyl-1H-indole-3-acetic acid + ethanol + ethyl ethanoate; phases: Crystal, Liquid mixture 1
Fixed: Pressure, kPa = 101
Property: Mole fraction of 1-(4-chlorobenzoyl)-5-methoxy-2-methyl-1H-indole-3-acetic acid (Crystal); method: UV-Vis Spectroscopy
Solvent: Mass fraction of ethanol	Temperature, K	Mole fraction of 1-(4-chlorobenzoyl)-5-methoxy-2-methyl-1H-indole-3-acetic acid	uncertainty
0	293.15	.01047	.00034
.1	293.15	.02259	.00016
.2	293.15	.02944	.00004
.3	293.15	.03093	.00024
.4	293.15	.0287	.0012
.5	293.15	.0239	.0008
.6	293.15	.0184	.001
.7	293.15	.01307	.00014
.8	293.15	.00882	.00014
.9	293.15	.00557	.0002
1	293.15	.00332	.00016
0	298.15	.01197	.00006
.1	298.15	.0248	.0008
.2	298.15	.0315	.00006
.3	298.15	.03363	.0004
.4	298.15	.0314	.001
.5	298.15	.0262	.001
.6	298.15	.0205	.0008
.7	298.15	.01506	.00012
.8	298.15	.01005	.00054
.9	298.15	.00658	.00014
1	298.15	.00417	.0001
0	303.15	.0138	.0008
.1	303.15	.02725	.00036
.2	303.15	.03452	.00026
.3	303.15	.03616	.0003
.4	303.15	.034	.0018
.5	303.15	.0285	.00032
.6	303.15	.023	.0006
.7	303.15	.01689	.00014
.8	303.15	.01183	.00028
.9	303.15	.00783	.000034
1	303.15	.00489	.000048
0	308.15	.01569	.00052
.1	308.15	.02974	.00034
.2	308.15	.0374	.0008
.3	308.15	.03906	.00032
.4	308.15	.03696	.00032
.5	308.15	.03188	.00008
.6	308.15	.02602	.00034
.7	308.15	.01983	.00018
.8	308.15	.01433	.00018
.9	308.15	.00965	.00026
1	308.15	.00616	.00008
0	313.15	.01798	.00022
.1	313.15	.03251	.00022
.2	313.15	.03989	.0002
.3	313.15	.04123	.00024
.4	313.15	.03913	.00014
.5	313.15	.03445	.00014
.6	313.15	.02858	.0004
.7	313.15	.02224	.00028
.8	313.15	.0164	.00004
.9	313.15	.01128	.00004
1	313.15	.00741	.000058

System: 1-(4-chlorobenzoyl)-5-methoxy-2-methyl-1H-indole-3-acetic acid + ethanol + ethyl ethanoate; phases: Liquid
Fixed: Pressure, kPa = 101
Property: Mass density, kg/m3 (Liquid); method: Vibrating tube method
Temperature, K	Solvent: Mass fraction of ethanol	Mole fraction of 1-(4-chlorobenzoyl)-5-methoxy-2-methyl-1H-indole-3-acetic acid	Mass density, kg/m3	uncertainty
293.15	0	.01047	914	.3
293.15	.1	.02259	918	.3
293.15	.2	.02944	918.7	.3
293.15	.3	.03093	913.5	.3
293.15	.4	.0287	902.3	.3
293.15	.5	.0239	886.5	.3
293.15	.6	.0184	869.7	.3
293.15	.7	.01307	849.2	.3
293.15	.8	.00882	830.8	.3
293.15	.9	.00557	813.7	.3
293.15	1	.00332	798.8	.3
298.15	0	.01197	910.1	.3
298.15	.1	.0248	915	.3
298.15	.2	.0315	915.2	.3
298.15	.3	.03363	910	.3
298.15	.4	.0314	899.5	.3
298.15	.5	.0262	884.4	.3
298.15	.6	.0205	866	.3
298.15	.7	.01506	846.5	.3
298.15	.8	.01005	828.3	.3
298.15	.9	.00658	811.2	.3
298.15	1	.00417	796.6	.3
303.15	0	.0138	906.4	.3
303.15	.1	.02725	912	.3
303.15	.2	.03452	912.9	.3
303.15	.3	.03616	908.5	.3
303.15	.4	.034	898.6	.3
303.15	.5	.0285	882.2	.3
303.15	.6	.023	865.3	.3
303.15	.7	.01689	845.3	.3
303.15	.8	.01183	827	.3
303.15	.9	.00783	809.5	.3
303.15	1	.00489	794.3	.3
308.15	0	.01569	902.7	.3
308.15	.1	.02974	910.4	.3
308.15	.2	.0374	912.5	.3
308.15	.3	.03906	907.7	.3
308.15	.4	.03696	897.5	.3
308.15	.5	.03188	883	.3
308.15	.6	.02602	866.1	.3
308.15	.7	.01983	846.8	.3
308.15	.8	.01433	828	.3
308.15	.9	.00965	809.6	.3
308.15	1	.00616	793.2	.3
313.15	0	.01798	899.6	.3
313.15	.1	.03251	908.3	.3
313.15	.2	.03989	910	.3
313.15	.3	.04123	905.2	.3
313.15	.4	.03913	895.7	.3
313.15	.5	.03445	881.9	.3
313.15	.6	.02858	865.4	.3
313.15	.7	.02224	846.8	.3
313.15	.8	.0164	827.8	.3
313.15	.9	.01128	809	.3
313.15	1	.00741	792.1	.3
