Measured thermophysical data. Equilibrium solubility, density, viscosity and corrosion rate of carbon dioxide in potassium lysinate solution
Source: Fluid Phase Equilib., 2015, 10.1016/j.fluid.2015.03.031
Compound 1: L-lysine, C6H14N2O2, purity 99.5%
Compound 2: potassium hydroxide, HKO, purity 99%
Compound 3: 2-aminoethanol, C2H7NO, purity 99.5%
Compound 4: carbon dioxide, CO2, purity 99.9%
Compound 5: water, H2O
Compound 6: potassium lysinate, C6H13KN2O2, purity 99%

System: carbon dioxide + water + potassium lysinate; phases: Liquid, Gas
Property: Mole fraction of carbon dioxide (Liquid); method: Phase equilibration
Amount concentration (molarity), mol/dm3 of potassium lysinate	Temperature, K	Partial pressure, kPa of carbon dioxide	Mole fraction of carbon dioxide	uncertainty
.5	298	12.69	.00707	
.5	298	20.52	.00797	
.5	298	28.24	.00907	
.5	298	36.22	.00968	
.5	298	38.88	.00993	
.5	308	14.01	.00556	
.5	308	22.35	.00603	
.5	308	30.25	.00726	
.5	308	38.32	.0082	
.5	308	40.65	.00835	
.5	313	14.73	.00476	
.5	313	23.1	.00541	
.5	313	31.23	.00647	
.5	313	39.46	.00736	
.5	313	41.47	.00785	
1.5	298	8.2	.01642	
1.5	298	14.87	.01982	
1.5	298	21.04	.02398	
1.5	298	27.8	.02697	
1.5	298	34.52	.02777	
1.5	308	10.27	.01326	
1.5	308	17.35	.01617	
1.5	308	24.66	.01861	
1.5	308	31.41	.02206	
1.5	308	36.77	.02381	
1.5	313	11.62	.01111	
1.5	313	19.24	.01321	
1.5	313	26.02	.01689	
1.5	313	33.16	.01988	
1.5	313	38.18	.02091	
2.5	298	5.4	.02493	
2.5	298	11.34	.03006	
2.5	298	18.12	.03336	
2.5	298	24.09	.03835	
2.5	298	32.06	.04181	
2.5	308	9.66	.01636	
2.5	308	16.67	.01976	
2.5	308	23.33	.02388	
2.5	308	30.36	.02723	
2.5	308	35.41	.03264	
2.5	313	12.8	.0101	
2.5	313	19.28	.01495	
2.5	313	25.93	.01768	
2.5	313	33.31	.02223	
2.5	313	37.3	.02731	

System: water + potassium lysinate; phases: Liquid
Fixed: Pressure, kPa = 101
Property: Mass density, kg/m3 (Liquid); method: Pycnometric method
Temperature, K	Amount concentration (molarity), mol/dm3 of potassium lysinate	Mass density, kg/m3	uncertainty
298	.5	1038.6	.1
308	.5	1036.3	.1
313	.5	1030.7	.1
298	1.5	1108.9	.1
308	1.5	1107.5	.1
313	1.5	1105.1	.1
298	2.5	1173.8	.1
308	2.5	1171.1	.1
313	2.5	1168.8	.1

System: water + potassium lysinate; phases: Liquid
Fixed: Pressure, kPa = 101
Property: Viscosity, Pa*s (Liquid); method: Capillary tube (Ostwald; Ubbelohde) method
Temperature, K	Amount concentration (molarity), mol/dm3 of potassium lysinate	Viscosity, Pa*s	uncertainty
298	.5	.0010386	.000020772
308	.5	.0010363	.000020726
313	.5	.0010307	.000020614
298	1.5	.0011089	.000022178
308	1.5	.0011075	.00002215
313	1.5	.0011051	.000022102
298	2.5	.0011738	.000023476
308	2.5	.0011711	.000023422
313	2.5	.0011688	.000023376
