Measured thermophysical data. Liquid phase PVTx properties of binary mixtures of (water + ethylene glycol) in the range from 278.15 to 323.15 K and from 0.1 to 100 MPa. I. Experimental results, partial and excess thermodynamics properties
Source: Fluid Phase Equilib., 2013, 10.1016/j.fluid.2013.01.025
Compound 1: 1,2-dihydroxyethane, C2H6O2
Compound 2: water, H2O

System: 1,2-dihydroxyethane; phases: Liquid
Property: Mass density, kg/m3 (Liquid); method: Vibrating tube method
Temperature, K	Pressure, kPa	Mass density, kg/m3	uncertainty
278.15	101	1123.8	.5
288.15	101	1116.85	.5
298.15	101	1109.88	.5
308.15	101	1102.84	.5
323.15	101	1092.14	.5

System: 1,2-dihydroxyethane + water; phases: Liquid
Fixed: Pressure, kPa = 101
Property: Mass density, kg/m3 (Liquid); method: Vibrating tube method
Temperature, K	Mole fraction of 1,2-dihydroxyethane	Mass density, kg/m3	uncertainty
278.15	0	999.96	.5
288.15	0	999.09	.5
298.15	0	997.04	.5
308.15	0	994.03	.5
323.15	0	988.03	.5
278.15	.02277	1010.24	.5
288.15	.02277	1008.82	.5
298.15	.02277	1006.33	.5
308.15	.02277	1002.99	.5
323.15	.02277	996.6	.5
278.15	.05488	1023.85	.5
288.15	.05488	1021.56	.5
298.15	.05488	1018.45	.5
308.15	.05488	1014.58	.5
323.15	.05488	1007.61	.5
278.15	.07829	1032.87	.5
288.15	.07829	1030.01	.5
298.15	.07829	1026.44	.5
308.15	.07829	1022.21	.5
323.15	.07829	1014.78	.5
278.15	.10123	1040.89	.5
288.15	.10123	1037.48	.5
298.15	.10123	1033.52	.5
308.15	.10123	1028.99	.5
323.15	.10123	1021.16	.5
278.15	.158	1057.7	.5
288.15	.158	1053.26	.5
298.15	.158	1048.42	.5
308.15	.158	1043.17	.5
323.15	.158	1034.52	.5
278.15	.2	1067.88	.5
288.15	.2	1062.86	.5
298.15	.2	1057.55	.5
308.15	.2	1051.92	.5
323.15	.2	1042.75	.5
278.15	.29901	1085.43	.5
288.15	.29901	1079.59	.5
298.15	.29901	1073.54	.5
308.15	.29901	1067.25	.5
323.15	.29901	1057.39	.5
278.15	.39169	1096.56	.5
288.15	.39169	1090.28	.5
298.15	.39169	1083.85	.5
308.15	.39169	1077.24	.5
323.15	.39169	1067.02	.5
278.15	.50056	1105.57	.5
288.15	.50056	1098.99	.5
298.15	.50056	1092.32	.5
308.15	.50056	1085.51	.5
323.15	.50056	1075.02	.5
278.15	.60408	1111.55	.5
288.15	.60408	1104.81	.5
298.15	.60408	1098	.5
308.15	.60408	1091.09	.5
323.15	.60408	1080.49	.5
278.15	.70626	1115.93	.5
288.15	.70626	1109.12	.5
298.15	.70626	1102.24	.5
308.15	.70626	1095.28	.5
323.15	.70626	1084.61	.5
278.15	.80486	1119.14	.5
288.15	.80486	1112.26	.5
298.15	.80486	1105.34	.5
308.15	.80486	1098.34	.5
323.15	.80486	1087.65	.5
278.15	.90336	1121.73	.5
288.15	.90336	1114.79	.5
298.15	.90336	1107.84	.5
308.15	.90336	1100.82	.5
323.15	.90336	1090.14	.5
278.15	.95352	1122.81	.5
288.15	.95352	1115.88	.5
298.15	.95352	1108.92	.5
308.15	.95352	1101.89	.5
323.15	.95352	1091.19	.5
278.15	.98261	1123.42	.5
288.15	.98261	1116.49	.5
298.15	.98261	1109.51	.5
308.15	.98261	1102.48	.5
323.15	.98261	1091.78	.5
278.15	1	1123.8	.5
288.15	1	1116.85	.5
298.15	1	1109.88	.5
308.15	1	1102.84	.5
323.15	1	1092.14	.5
