Measured thermophysical data. A new low transition temperature mixture (LTTM) formed by choline  chloride + lactic acid: Characterization as solvent for CO2 capture
Source: Fluid Phase Equilib., 2013, 10.1016/j.fluid.2012.12.001
Compound 1: water, H2O, purity 99.9%
Compound 2: carbon dioxide, CO2, purity 99.9%
Compound 3: lactic acid, C3H6O3, purity 99.5%
Compound 4: choline hydrochloride, C5H14ClNO, purity 99.5%

System: lactic acid + choline hydrochloride; phases: Liquid
Fixed: Pressure, kPa = 101
Property: Mass density, kg/m3 (Liquid); method: Vibrating tube method
Amount ratio of solute to solvent of lactic acid	Temperature, K	Mass density, kg/m3	uncertainty
1.3	298.15	1166.3	
1.3	303.15	1163.1	
1.3	308.15	1160	
1.3	313.15	1157	
1.3	318.15	1154	
1.3	323.15	1151.1	
1.3	328.15	1148.2	
1.3	333.15	1145.3	
1.3	338.15	1142.4	
1.3	343.15	1139.6	
1.3	348.15	1136.7	
1.3	353.15	1133.9	
1.3	358.15	1131.1	
1.3	363.15	1128.3	
1.5	298.15	1174.9	
1.5	303.15	1171.4	
1.5	308.15	1168.2	
1.5	313.15	1165	
1.5	318.15	1161.9	
1.5	323.15	1158.9	
1.5	328.15	1155.8	
1.5	333.15	1152.7	
1.5	338.15	1149.7	
1.5	343.15	1146.7	
1.5	348.15	1143.7	
1.5	353.15	1140.7	
1.5	358.15	1137.7	
1.5	363.15	1134.7	
2	298.15	1179.3	
2	303.15	1175.8	
2	308.15	1172.5	
2	313.15	1169.3	
2	318.15	1166.2	
2	323.15	1163	
2	328.15	1159.9	
2	333.15	1156.7	
2	338.15	1153.6	
2	343.15	1150.5	
2	348.15	1147.4	
2	353.15	1144.3	
2	358.15	1141.2	
2	363.15	1138.1	
2.5	298.15	1184.7	
2.5	303.15	1181.1	
2.5	308.15	1177.7	
2.5	313.15	1174.4	
2.5	318.15	1171.1	
2.5	323.15	1167.9	
2.5	328.15	1164.6	
2.5	333.15	1161.3	
2.5	338.15	1158	
2.5	343.15	1154.8	
2.5	348.15	1151.5	
2.5	353.15	1148.3	
2.5	358.15	1145.1	
2.5	363.15	1141.9	
3	298.15	1189.3	
3	303.15	1185.6	
3	308.15	1182.1	
3	313.15	1178.6	
3	318.15	1175.2	
3	323.15	1171.8	
3	328.15	1168.4	
3	333.15	1165	
3	338.15	1161.6	
3	343.15	1158.2	
3	348.15	1154.9	
3	353.15	1151.5	
3	358.15	1148.1	
3	363.15	1144.7	
3.5	298.15	1193.2	
3.5	303.15	1189.4	
3.5	308.15	1185.9	
3.5	313.15	1182.3	
3.5	318.15	1178.8	
3.5	323.15	1175.3	
3.5	328.15	1171.8	
3.5	333.15	1168.3	
3.5	338.15	1164.8	
3.5	343.15	1161.3	
3.5	348.15	1157.8	
3.5	353.15	1154.2	
3.5	358.15	1150.9	
3.5	363.15	1147.4	
5	298.15	1200.6	
5	303.15	1196.7	
5	308.15	1193	
5	313.15	1189.3	
5	318.15	1185.6	
5	323.15	1181.9	
5	328.15	1178.3	
5	333.15	1174.6	
5	338.15	1170.9	
5	343.15	1167.2	
5	348.15	1163.5	
5	353.15	1159.8	
5	358.15	1156.1	
5	363.15	1152.3	
8	298.15	1208	
8	303.15	1204	
8	308.15	1200.1	
8	313.15	1196.2	
8	318.15	1192.3	
8	323.15	1188.4	
8	328.15	1184.5	
8	333.15	1180.5	
8	338.15	1176.6	
8	343.15	1172.7	
8	348.15	1168.8	
8	353.15	1164.8	
8	358.15	1160.9	
8	363.15	1157.1	
10	298.15	1211.3	
10	303.15	1207.1	
10	308.15	1203	
10	313.15	1199	
10	318.15	1195	
10	323.15	1191	
10	328.15	1186.9	
10	333.15	1182.9	
10	338.15	1178.8	
10	343.15	1174.7	
10	348.15	1170.7	
10	353.15	1166.7	
10	358.15	1162.7	
10	363.15	1158.6	
15	298.15	1173.2	
15	303.15	1207.1	
15	308.15	1203	
15	313.15	1199	
15	318.15	1195	
15	323.15	1191	
15	328.15	1186.9	
15	333.15	1182.9	
15	338.15	1178.8	
15	343.15	1174.7	
15	348.15	1170.7	
15	353.15	1166.7	
15	358.15	1162.7	
15	363.15	1158.6	

System: lactic acid + choline hydrochloride; phases: Liquid
Fixed: Pressure, kPa = 101
Property: Viscosity, Pa*s (Liquid); method: Capillary tube (Ostwald; Ubbelohde) method
Amount ratio of solute to solvent of lactic acid	Temperature, K	Viscosity, Pa*s	uncertainty
1.3	298.15	.72255	
1.3	303.15	.50817	
1.3	308.15	.36459	
1.3	313.15	.26749	
1.3	318.15	.20031	
1.3	323.15	.1528	
1.3	328.15	.1186	
1.3	333.15	.093546	
1.3	338.15	.074845	
1.3	343.15	.060712	
1.3	348.15	.04984	
1.3	353.15	.041397	
1.3	358.15	.034751	
1.3	363.15	.029442	
1.5	298.15	.61562	
1.5	303.15	.42898	
1.5	308.15	.30496	
1.5	313.15	.22255	
1.5	318.15	.16587	
1.5	323.15	.12622	
1.5	328.15	.097765	
1.5	333.15	.076991	
1.5	338.15	.061569	
1.5	343.15	.04992	
1.5	348.15	.041005	
1.5	353.15	.034084	
1.5	358.15	.028643	
1.5	363.15	.024311	
2	298.15	.53628	
2	303.15	.37038	
2	308.15	.26328	
2	313.15	.19168	
2	318.15	.1427	
2	323.15	.10845	
2	328.15	.083988	
2	333.15	.066164	
2	338.15	.053079	
2	343.15	.043048	
2	348.15	.035404	
2	353.15	.029465	
2	358.15	.024793	
2	363.15	.021077	
2.5	298.15	.49473	
2.5	303.15	.34117	
2.5	308.15	.24121	
2.5	313.15	.1749	
2.5	318.15	.12975	
2.5	323.15	.098297	
2.5	328.15	.075925	
2.5	333.15	.05967	
2.5	338.15	.047664	
2.5	343.15	.038636	
2.5	348.15	.031746	
2.5	353.15	.026407	
2.5	358.15	.022216	
2.5	363.15	.018886	
3	298.15	.43753	
3	303.15	.30021	
3	308.15	.21164	
3	313.15	.15304	
3	318.15	.11334	
3	323.15	.085771	
3	328.15	.066186	
3	333.15	.052002	
3	338.15	.041528	
3	343.15	.03366	
3	348.15	.02766	
3	353.15	.023012	
3	358.15	.019365	
3	363.15	.016451	
3.5	298.15	.41814	
3.5	303.15	.28525	
3.5	308.15	.20001	
3.5	313.15	.14401	
3.5	318.15	.10626	
3.5	323.15	.080161	
3.5	328.15	.061707	
3.5	333.15	.048385	
3.5	338.15	.038581	
3.5	343.15	.031238	
3.5	348.15	.025644	
3.5	353.15	.021323	
3.5	358.15	.017938	
3.5	363.15	.01529	
5	298.15	.37856	
5	303.15	.25491	
5	308.15	.17699	
5	313.15	.12642	
5	318.15	.092658	
5	323.15	.069535	
5	328.15	.053282	
5	333.15	.041633	
5	338.15	.033098	
5	343.15	.026737	
5	348.15	.021912	
5	353.15	.018195	
5	358.15	.015293	
5	363.15	.012986	
8	298.15	.34127	
8	303.15	.22658	
8	308.15	.15591	
8	313.15	.11053	
8	318.15	.080531	
8	323.15	.060117	
8	328.15	.045883	
8	333.15	.035723	
8	338.15	.028326	
8	343.15	.022833	
8	348.15	.01868	
8	353.15	.015493	
8	358.15	.013011	
8	363.15	.011047	
10	298.15	.3215	
10	303.15	.21335	
10	308.15	.14637	
10	313.15	.10352	
10	318.15	.075263	
10	323.15	.056099	
10	328.15	.04276	
10	333.15	.033258	
10	338.15	.026349	
10	343.15	.021229	
10	348.15	.017363	
10	353.15	.014381	
10	358.15	.012046	
10	363.15	.010235	
15	298.15	.22694	
15	303.15	.16342	
15	308.15	.14637	
15	313.15	.10352	
15	318.15	.075263	
15	323.15	.056099	
15	328.15	.04276	
15	333.15	.033258	
15	338.15	.026349	
15	343.15	.021229	
15	348.15	.017363	
15	353.15	.014381	
15	358.15	.012046	
15	363.15	.010235	

System: lactic acid + choline hydrochloride; phases: Liquid, Air at 1 atmosphere
Fixed: Amount ratio of solute to solvent of lactic acid = 2
Property: Surface tension liquid-gas, N/m (Liquid); method: Capillary rise
Temperature, K	Surface tension liquid-gas, N/m	uncertainty
298.2	.048	
303.3	.0476	
308.3	.0473	
313.5	.047	
319.2	.0467	
323.5	.0465	
328.6	.0462	
333.2	.046	
338.1	.0457	

System: lactic acid + choline hydrochloride + water; phases: Liquid
Fixed: Pressure, kPa = 101
Fixed: Amount ratio of solute to solvent of lactic acid = 2
Property: Mass density, kg/m3 (Liquid); method: Vibrating tube method
Mass fraction of water	Temperature, K	Mass density, kg/m3	uncertainty
.0051	298.15	1179.1	
.0051	303.15	1175.6	
.0051	308.15	1172.3	
.0051	313.15	1169.1	
.0051	318.15	1165.9	
.0051	323.15	1162.8	
.0051	328.15	1159.6	
.0051	333.15	1156.5	
.0051	338.15	1153.4	
.0051	343.15	1150.2	
.0051	348.15	1147.1	
.0051	353.15	1144	
.0051	358.15	1140.9	
.0084	298.15	1179.3	
.0084	303.15	1175.8	
.0084	308.15	1172.5	
.0084	313.15	1169.3	
.0084	318.15	1166.2	
.0084	323.15	1163	
.0084	328.15	1159.9	
.0084	333.15	1156.7	
.0084	338.15	1153.6	
.0084	343.15	1150.5	
.0084	348.15	1147.4	
.0084	353.15	1144.3	
.0084	358.15	1141.2	
.0238	298.15	1175.4	
.0238	303.15	1172	
.0238	308.15	1168.8	
.0238	313.15	1165.2	
.0238	318.15	1162.5	
.0238	323.15	1159.3	
.0238	328.15	1156.2	
.0238	333.15	1153	
.0238	338.15	1149.9	
.0238	343.15	1146.8	
.0238	348.15	1143.6	
.0238	353.15	1140.5	
.0238	358.15	1137.4	
.0303	298.15	1176	
.0303	303.15	1172.6	
.0303	308.15	1169.4	
.0303	313.15	1166.2	
.0303	318.15	1163	
.0303	323.15	1159.9	
.0303	328.15	1156.7	
.0303	333.15	1153.5	
.0303	338.15	1150.4	
.0303	343.15	1147.2	
.0303	348.15	1144	
.0303	353.15	1140.9	
.0303	358.15	1137.8	
.0454	298.15	1173.2	
.0454	303.15	1170	
.0454	308.15	1166.8	
.0454	313.15	1163.6	
.0454	318.15	1160.4	
.0454	323.15	1157.2	
.0454	328.15	1154	
.0454	333.15	1150.8	
.0454	338.15	1147.5	
.0454	343.15	1144.4	
.0454	348.15	1141.2	
.0454	353.15	1137.9	
.0454	358.15	1134.8	
.0569	298.15	1173.7	
.0569	303.15	1170.4	
.0569	308.15	1167.2	
.0569	313.15	1164	
.0569	318.15	1160.8	
.0569	323.15	1157.6	
.0569	328.15	1154.4	
.0569	333.15	1151.2	
.0569	338.15	1148	
.0569	343.15	1144.8	
.0569	348.15	1141.6	
.0569	353.15	1138.5	
.0569	358.15	1135.3	
.0716	298.15	1170.1	
.0716	303.15	1166.8	
.0716	308.15	1163.6	
.0716	313.15	1160.4	
.0716	318.15	1157.1	
.0716	323.15	1153.9	
.0716	328.15	1150.6	
.0716	333.15	1147.4	
.0716	338.15	1144.1	
.0716	343.15	1140.9	
.0716	348.15	1137.6	
.0716	353.15	1134.2	
.0716	358.15	1131.1	
.0824	298.15	1169.3	
.0824	303.15	1166.1	
.0824	308.15	1162.8	
.0824	313.15	1159.6	
.0824	318.15	1156.4	
.0824	323.15	1153.2	
.0824	328.15	1149.9	
.0824	333.15	1146.7	
.0824	338.15	1143.5	
.0824	343.15	1140.2	
.0824	348.15	1137	
.0824	353.15	1133.7	
.0824	358.15	1130.6	
.086	298.15	1169.3	
.086	303.15	1166	
.086	308.15	1162.7	
.086	313.15	1159.5	
.086	318.15	1156.2	
.086	323.15	1152.9	
.086	328.15	1149.7	
.086	333.15	1146.4	
.086	338.15	1143.1	
.086	343.15	1139.8	
.086	348.15	1136.5	
.086	353.15	1133.4	
.086	358.15	1130.1	
.086	363.15	1126.9	

System: lactic acid + choline hydrochloride + water; phases: Liquid
Fixed: Pressure, kPa = 101
Fixed: Amount ratio of solute to solvent of lactic acid = 2
Property: Viscosity, Pa*s (Liquid); method: Capillary tube (Ostwald; Ubbelohde) method
Mass fraction of water	Temperature, K	Viscosity, Pa*s	uncertainty
.0051	298.15	.53791	
.0051	303.15	.37226	
.0051	308.15	.26495	
.0051	313.15	.19318	
.0051	318.15	.14398	
.0051	323.15	.10949	
.0051	328.15	.084796	
.0051	333.15	.066805	
.0051	338.15	.053445	
.0051	343.15	.043373	
.0051	348.15	.03566	
.0051	353.15	.029674	
.0051	358.15	.02498	
.0084	298.15	.53628	
.0084	303.15	.37038	
.0084	308.15	.26328	
.0084	313.15	.19168	
.0084	318.15	.1427	
.0084	323.15	.10845	
.0084	328.15	.083988	
.0084	333.15	.066164	
.0084	338.15	.053079	
.0084	343.15	.043048	
.0084	348.15	.035404	
.0084	353.15	.029465	
.0084	358.15	.024793	
.0238	298.15	.35604	
.0238	303.15	.25366	
.0238	308.15	.18382	
.0238	313.15	.13631	
.0238	318.15	.10319	
.0238	323.15	.079631	
.0238	328.15	.06254	
.0238	333.15	.049902	
.0238	338.15	.040408	
.0238	343.15	.033163	
.0238	348.15	.02755	
.0238	353.15	.023995	
.0238	358.15	.019659	
.0303	298.15	.30394	
.0303	303.15	.2157	
.0303	308.15	.15704	
.0303	313.15	.11699	
.0303	318.15	.088984	
.0303	323.15	.068954	
.0303	328.15	.054376	
.0303	333.15	.043552	
.0303	338.15	.035398	
.0303	343.15	.029149	
.0303	348.15	.024297	
.0303	353.15	.020472	
.0303	358.15	.017422	
.0454	298.15	.22694	
.0454	303.15	.16342	
.0454	308.15	.12069	
.0454	313.15	.091074	
.0454	318.15	.070107	
.0454	323.15	.054947	
.0454	328.15	.043773	
.0454	333.15	.035406	
.0454	338.15	.029028	
.0454	343.15	.024103	
.0454	348.15	.020256	
.0454	353.15	.017193	
.0454	358.15	.015027	
.0569	298.15	.24485	
.0569	303.15	.17531	
.0569	308.15	.12871	
.0569	313.15	.096631	
.0569	318.15	.074049	
.0569	323.15	.057853	
.0569	328.15	.045894	
.0569	333.15	.037015	
.0569	338.15	.030265	
.0569	343.15	.025067	
.0569	348.15	.021012	
.0569	353.15	.0178	
.0569	358.15	.015236	
.0716	298.15	.14179	
.0716	303.15	.10443	
.0716	308.15	.078722	
.0716	313.15	.060458	
.0716	318.15	.047378	
.0716	323.15	.037756	
.0716	328.15	.030549	
.0716	333.15	.025059	
.0716	338.15	.020822	
.0716	343.15	.017503	
.0716	348.15	.014874	
.0716	353.15	.012764	
.0716	358.15	.011046	
.0824	298.15	.12547	
.0824	303.15	.092892	
.0824	308.15	.070316	
.0824	313.15	.054303	
.0824	318.15	.042709	
.0824	323.15	.034156	
.0824	328.15	.02773	
.0824	333.15	.022824	
.0824	338.15	.019024	
.0824	343.15	.016039	
.0824	348.15	.013668	
.0824	353.15	.011762	
.0824	358.15	.010205	
.086	298.15	.12261	
.086	303.15	.090875	
.086	308.15	.068907	
.086	313.15	.0533	
.086	318.15	.041977	
.086	323.15	.033606	
.086	328.15	.027309	
.086	333.15	.0225	
.086	338.15	.018767	
.086	343.15	.015834	
.086	348.15	.013523	
.086	353.15	.011495	
.086	358.15	.009986	
.086	363.15	.008854	

System: lactic acid + choline hydrochloride + carbon dioxide; phases: Liquid, Gas
Fixed: Amount ratio of solute to solvent of lactic acid = 2
Property: Vapor or sublimation pressure, kPa (Liquid); method: Closed cell (Static) method
Mole fraction of carbon dioxide	Temperature, K	Vapor or sublimation pressure, kPa	uncertainty
.0248	303.29	829	
.0248	308.17	904	
.0248	313.19	989	
.0248	318.18	1092	
.0248	323.2	1196	
.0248	328.17	1291	
.0248	333.21	1406	
.0248	338.18	1536	
.0248	343.18	1706	
.0248	348.23	1927	
.0496	303.26	1655	
.0496	308.25	1835	
.0496	313.15	2045	
.0496	318.16	2279	
.0496	323.15	2556	
.0496	328.15	2830	
.0496	333.21	3083	
.0496	338.24	3358	
.0496	343.24	3668	
.0496	348.18	3979	
.0742	303.28	2580	
.0742	308.25	2830	
.0742	313.21	3155	
.0742	318.18	3515	
.0742	323.15	3831	
.0742	328.22	4181	
.0742	333.14	4545	
.0742	338.18	4895	
.0742	343.19	5280	
.0742	348.18	5667	
.0995	303.27	3591	
.0995	308.25	4117	
.0995	313.21	4668	
.0995	318.18	5197	
.0995	323.15	5763	
.0995	328.22	6359	
.0995	333.14	7077	
.0995	338.18	7808	
.0995	343.19	8568	
.0995	348.18	9379	
