Measured thermophysical data. Thermodynamics of ketone + amine mixtures. Part IX. Excess molar enthalpies at  298.15 K for dipropylamine, or dibutylamine + 2-alkanone systems and modeling  of linear or aromatic amine + 2-alkanone mixtures in terms of DISQUAC and ERAS
Source: Fluid Phase Equilib., 2013, 10.1016/j.fluid.2013.01.011
Compound 1: propanone, C3H6O, purity 99.8%
Compound 2: ethyl methyl ketone, C4H8O, purity 99.5%
Compound 3: propyl methyl ketone, C5H10O, purity 99%
Compound 4: methyl pentyl ketone, C7H14O, purity 99%
Compound 5: dipropylamine, C6H15N, purity 99%
Compound 6: dibutylamine, C8H19N, purity 99.5%

System: propanone; phases: Liquid
Fixed: Pressure, kPa = 101.325
Property: Mass density, kg/m3 (Liquid); method: Vibrating tube method
Temperature, K	Mass density, kg/m3	uncertainty
298.15	785.094	.01

System: ethyl methyl ketone; phases: Liquid
Fixed: Pressure, kPa = 101.325
Property: Mass density, kg/m3 (Liquid); method: Vibrating tube method
Temperature, K	Mass density, kg/m3	uncertainty
298.15	799.969	.01

System: propyl methyl ketone; phases: Liquid
Fixed: Pressure, kPa = 101.325
Property: Mass density, kg/m3 (Liquid); method: Vibrating tube method
Temperature, K	Mass density, kg/m3	uncertainty
298.15	801.522	.01

System: methyl pentyl ketone; phases: Liquid
Fixed: Pressure, kPa = 101.325
Property: Mass density, kg/m3 (Liquid); method: Vibrating tube method
Temperature, K	Mass density, kg/m3	uncertainty
298.15	811.162	.01

System: dipropylamine; phases: Liquid
Fixed: Pressure, kPa = 101.325
Property: Mass density, kg/m3 (Liquid); method: Vibrating tube method
Temperature, K	Mass density, kg/m3	uncertainty
298.15	733.723	.01

System: dibutylamine; phases: Liquid
Fixed: Pressure, kPa = 101.325
Property: Mass density, kg/m3 (Liquid); method: Vibrating tube method
Temperature, K	Mass density, kg/m3	uncertainty
298.15	755.528	.01

System: propanone + dipropylamine; phases: Liquid
Fixed: Temperature, K = 298.15
Fixed: Pressure, kPa = 101
Property: Excess molar enthalpy (molar enthalpy of mixing), kJ/mol (Liquid); method: Calvet calorimetry
Mole fraction of dipropylamine	Excess molar enthalpy (molar enthalpy of mixing), kJ/mol	uncertainty
.1063	.273	.00273
.2076	.471	.00471
.3036	.585	.00585
.3982	.631	.00631
.4932	.642	.00642
.5821	.616	.00616
.6773	.541	.00541
.7652	.434	.00434
.8488	.296	.00296

System: ethyl methyl ketone + dipropylamine; phases: Liquid
Fixed: Temperature, K = 298.15
Fixed: Pressure, kPa = 101
Property: Excess molar enthalpy (molar enthalpy of mixing), kJ/mol (Liquid); method: Calvet calorimetry
Mole fraction of dipropylamine	Excess molar enthalpy (molar enthalpy of mixing), kJ/mol	uncertainty
.1042	.155	.00155
.1978	.253	.00253
.3016	.334	.00334
.3852	.37	.0037
.495	.397	.00397
.5459	.396	.00396
.5908	.392	.00392
.6833	.356	.00356
.7647	.299	.00299
.8559	.204	.00204

System: propyl methyl ketone + dipropylamine; phases: Liquid
Fixed: Temperature, K = 298.15
Fixed: Pressure, kPa = 101
Property: Excess molar enthalpy (molar enthalpy of mixing), kJ/mol (Liquid); method: Calvet calorimetry
Mole fraction of dipropylamine	Excess molar enthalpy (molar enthalpy of mixing), kJ/mol	uncertainty
.1056	.087	.00087
.1981	.154	.00154
.3098	.217	.00217
.3988	.26	.0026
.5023	.281	.00281
.5922	.284	.00284
.6821	.267	.00267
.781	.228	.00228
.8693	.16	.0016

System: methyl pentyl ketone + dipropylamine; phases: Liquid
Fixed: Temperature, K = 298.15
Fixed: Pressure, kPa = 101
Property: Excess molar enthalpy (molar enthalpy of mixing), kJ/mol (Liquid); method: Calvet calorimetry
Mole fraction of dipropylamine	Excess molar enthalpy (molar enthalpy of mixing), kJ/mol	uncertainty
.1145	.047	.00047
.212	.088	.00088
.3072	.118	.00118
.4034	.143	.00143
.4993	.162	.00162
.6017	.17	.0017
.6872	.159	.00159
.7868	.137	.00137
.8796	.096	.00096

System: propanone + dibutylamine; phases: Liquid
Fixed: Temperature, K = 298.15
Fixed: Pressure, kPa = 101
Property: Excess molar enthalpy (molar enthalpy of mixing), kJ/mol (Liquid); method: Calvet calorimetry
Mole fraction of dibutylamine	Excess molar enthalpy (molar enthalpy of mixing), kJ/mol	uncertainty
.1101	.442	.00442
.2103	.692	.00692
.2999	.853	.00853
.398	.922	.00922
.4977	.936	.00936
.6088	.863	.00863
.6999	.757	.00757
.79	.598	.00598
.8913	.346	.00346

System: ethyl methyl ketone + dibutylamine; phases: Liquid
Fixed: Temperature, K = 298.15
Fixed: Pressure, kPa = 101
Property: Excess molar enthalpy (molar enthalpy of mixing), kJ/mol (Liquid); method: Calvet calorimetry
Mole fraction of dibutylamine	Excess molar enthalpy (molar enthalpy of mixing), kJ/mol	uncertainty
.1142	.274	.00274
.2078	.425	.00425
.2985	.536	.00536
.3978	.601	.00601
.4956	.619	.00619
.6001	.593	.00593
.693	.529	.00529
.7846	.417	.00417
.8802	.27	.0027

System: propyl methyl ketone + dibutylamine; phases: Liquid
Fixed: Temperature, K = 298.15
Fixed: Pressure, kPa = 101
Property: Excess molar enthalpy (molar enthalpy of mixing), kJ/mol (Liquid); method: Calvet calorimetry
Mole fraction of dibutylamine	Excess molar enthalpy (molar enthalpy of mixing), kJ/mol	uncertainty
.1111	.17	.0017
.2106	.286	.00286
.3072	.38	.0038
.3973	.427	.00427
.4942	.451	.00451
.6052	.437	.00437
.6999	.392	.00392
.7881	.319	.00319
.8848	.203	.00203

System: methyl pentyl ketone + dibutylamine; phases: Liquid
Fixed: Temperature, K = 298.15
Fixed: Pressure, kPa = 101
Property: Excess molar enthalpy (molar enthalpy of mixing), kJ/mol (Liquid); method: Calvet calorimetry
Mole fraction of dibutylamine	Excess molar enthalpy (molar enthalpy of mixing), kJ/mol	uncertainty
.1114	.086	.00086
.2189	.164	.00164
.3057	.217	.00217
.4038	.254	.00254
.5087	.278	.00278
.5962	.278	.00278
.7053	.256	.00256
.8017	.208	.00208
.8891	.138	.00138
