Measured thermophysical data. Isobaric vapor liquid equilibria of the binary system: Maleic  anhydride + di-n-butylsebacate at 2.67, 5.33 and 8.00 kPa
Source: Fluid Phase Equilib., 2008, 10.1016/j.fluid.2008.08.001
Compound 1: maleic anhydride, C4H2O3
Compound 2: dibutyl sebacate, C18H34O4

System: maleic anhydride; phases: Crystal, Liquid, Air at 1 atmosphere
Property: Normal melting temperature, K (Crystal); method: Visual observation
Normal melting temperature, K	uncertainty
325.6	

System: dibutyl sebacate; phases: Liquid
Fixed: Pressure, kPa = 101.325
Property: Refractive index (Na D-line) (Liquid); method: Standard Abbe refractometry
Temperature, K	Refractive index (Na D-line)	uncertainty
298.15	1.442	

System: dibutyl sebacate; phases: Liquid, Gas
Property: Vapor or sublimation pressure, kPa (Liquid); method: Ebulliometric method (Recirculating still)
Temperature, K	Vapor or sublimation pressure, kPa	uncertainty
468.96	.666	
473.96	.818	
478.65	1.036	
485.91	1.457	
488.5	1.515	
490.22	1.762	
496.8	2.286	
500.18	2.647	
505.08	3.149	
510.7	4.078	
519.03	5.29	
525.3	7.044	
532.77	9.161	

System: maleic anhydride + dibutyl sebacate; phases: Liquid, Gas
Property: Boiling temperature at pressure P, K (Liquid); method: Ebulliometric method (Recirculating still)
Mole fraction of maleic anhydride	Pressure, kPa	Boiling temperature at pressure P, K	uncertainty
.0534	2.67	450.25	
.1466	2.67	410.71	
.2536	2.67	391.47	
.3676	2.67	381.35	
.4689	2.67	375.45	
.564	2.67	371.3	
.6631	2.67	369.78	
.7536	2.67	369.19	
.8594	2.67	368.94	
.0572	5.33	472.15	
.1471	5.33	431.31	
.2537	5.33	410.73	
.3676	5.33	398.95	
.4689	5.33	392.41	
.564	5.33	388.45	
.6631	5.33	384.89	
.7536	5.33	384.18	
.8594	5.33	383.89	
.0601	8	490.12	
.1477	8	450.14	
.2538	8	422.37	
.3676	8	410.68	
.4689	8	404.15	
.564	8	399.07	
.6631	8	396.1	
.7536	8	394.79	
.8594	8	393.96	
