Measured thermophysical data. Liquid-liquid equilibrium data for binary perfluoroalkane (C6 and C8) + n-alkane systems
Source: Fluid Phase Equilib., 2010, 10.1016/j.fluid.2010.05.018
Compound 1: perfluorohexane, C6F14
Compound 2: octadecafluorooctane, C8F18
Compound 3: hexane, C6H14
Compound 4: octane, C8H18

System: perfluorohexane; phases: Liquid
Fixed: Pressure, kPa = 101.325
Property: Mass density, kg/m3 (Liquid); method: Vibrating tube method
Temperature, K	Mass density, kg/m3	uncertainty
298.15	1670.07	

System: octadecafluorooctane; phases: Liquid
Fixed: Pressure, kPa = 101.325
Property: Mass density, kg/m3 (Liquid); method: Vibrating tube method
Temperature, K	Mass density, kg/m3	uncertainty
298.15	1754.28	

System: hexane + perfluorohexane; phases: Liquid mixture 1, Liquid mixture 2
Fixed: Pressure, kPa = 101
Property: Liquid-liquid equilibrium temperature, K (Liquid mixture 1); method: Cloud point method
Mole fraction of perfluorohexane	Liquid-liquid equilibrium temperature, K	uncertainty
.1498	290.49	.1
.2	293.89	.1
.2497	295.23	.1
.2751	295.9	.1
.2994	296.26	.1
.4018	296.04	.1
.421	296.15	.1
.45	295.78	.1
.4999	295.26	.1
.5252	294.71	.1
.5497	293.9	.1
.5988	291.95	.1
.6492	289.45	.1
.7	285.09	.1

System: hexane + perfluorohexane; phases: Liquid mixture 1, Liquid mixture 2
Property: Critical temperature, K (Liquid mixture 1); method: Interpolated from cloud point data
Pressure, kPa	Critical temperature, K	uncertainty
101.325	296.41	.1

System: hexane + perfluorohexane; phases: Liquid mixture 1, Liquid mixture 2
Property: Upper consolute composition: mole fraction of perfluorohexane (Liquid mixture 1); method: Interpolated from cloud point data
Pressure, kPa	Upper consolute composition: mole fraction of perfluorohexane	uncertainty
101.325	.3621	.0001

System: octane + perfluorohexane; phases: Liquid mixture 1, Liquid mixture 2
Fixed: Pressure, kPa = 101
Property: Liquid-liquid equilibrium temperature, K (Liquid mixture 1); method: Cloud point method
Mole fraction of perfluorohexane	Liquid-liquid equilibrium temperature, K	uncertainty
.0513	281.67	.1
.0567	288.43	.1
.0561	288.07	.1
.0631	292.54	.1
.0762	298.87	.1
.0864	303.16	.1
.0992	306.9	.1
.1226	314	.1
.1426	319.66	.1
.1675	322.16	.1
.1795	326.05	.1
.2045	328.72	.1
.2228	329.63	.1
.2563	332.04	.1
.2915	332.81	.1
.3234	333.87	.1
.3504	334.48	.1
.3742	334.62	.1
.4059	334.82	.1
.4324	334.83	.1
.4501	334.73	.1
.488	334.57	.1
.5206	334.42	.1
.555	333.82	.1
.5701	333.16	.1
.6083	331.5	.1
.6306	331	.1
.6856	328.76	.1
.7053	326.68	.1
.7579	322.07	.1
.783	316.62	.1
.8117	311.56	.1
.8298	308.02	.1
.8532	304.04	.1
.874	299.95	.1
.9059	292.01	.1

System: octane + perfluorohexane; phases: Liquid mixture 1, Liquid mixture 2
Property: Critical temperature, K (Liquid mixture 1); method: Interpolated from cloud point data
Pressure, kPa	Critical temperature, K	uncertainty
101.325	334.84	.1

System: octane + perfluorohexane; phases: Liquid mixture 1, Liquid mixture 2
Property: Upper consolute composition: mole fraction of perfluorohexane (Liquid mixture 1); method: Interpolated from cloud point data
Pressure, kPa	Upper consolute composition: mole fraction of perfluorohexane	uncertainty
101.325	.4203	.0001

System: octane + octadecafluorooctane; phases: Liquid mixture 1, Liquid mixture 2
Fixed: Pressure, kPa = 101
Property: Liquid-liquid equilibrium temperature, K (Liquid mixture 1); method: Cloud point method
Mole fraction of octadecafluorooctane	Liquid-liquid equilibrium temperature, K	uncertainty
.0503	314.35	.1
.0635	321.68	.1
.0724	325.46	.1
.0838	329.75	.1
.1002	334.59	.1
.1188	338.45	.1
.1327	340.43	.1
.149	342.69	.1
.1677	344.65	.1
.186	345.72	.1
.1974	346.43	.1
.2221	347.89	.1
.2556	348.81	.1
.2896	349.27	.1
.304	349.36	.1
.3336	349.44	.1
.3539	349.5	.1
.3721	349.43	.1
.399	349.26	.1
.4158	349.18	.1
.4268	349.14	.1
.4664	348.4	.1
.4978	347.92	.1
.5376	346.98	.1
.5589	346.19	.1
.5989	344.16	.1
.6381	342.05	.1
.6474	340.89	.1
.6689	339.43	.1
.6994	336.2	.1
.7487	330.43	.1
.8224	318.34	.1
.8734	304.97	.1

System: octane + octadecafluorooctane; phases: Liquid mixture 1, Liquid mixture 2
Property: Critical temperature, K (Liquid mixture 1); method: Interpolated from cloud point data
Pressure, kPa	Critical temperature, K	uncertainty
101.325	349.52	.1

System: octane + octadecafluorooctane; phases: Liquid mixture 1, Liquid mixture 2
Property: Upper consolute composition: mole fraction of octadecafluorooctane (Liquid mixture 1); method: Interpolated from cloud point data
Pressure, kPa	Upper consolute composition: mole fraction of octadecafluorooctane	uncertainty
101.325	.3506	.0001
