Measured thermophysical data. Liquid-liquid equilibria of water + 2,3-butanediol + isobutanol at several temperatures
Source: Fluid Phase Equilib., 2012, 10.1016/j.fluid.2012.04.018
Compound 1: 1-butanol, C4H10O, purity 99.5%
Compound 2: 513893, , purity 99.2%
Compound 3: water, H2O, purity 99.8%

System: 1-butanol + 513893 + water; phases: Liquid mixture 1, Liquid mixture 2, Gas
Fixed: Pressure, kPa = 101.3
Property: Mass fraction of water (Liquid mixture 1); method: Chromatography
Property: Mass fraction of 1-butanol (Liquid mixture 1); method: Chromatography
Property: Mass fraction of 1-butanol (Liquid mixture 2); method: Chromatography
Property: Mass fraction of water (Liquid mixture 2); method: Chromatography
Property: Mass fraction of water (Gas); method: Chromatography
Property: Mass fraction of 1-butanol (Gas); method: Chromatography
Temperature, K	Mass fraction of water	uncertainty	Mass fraction of 1-butanol	uncertainty	Mass fraction of 1-butanol	uncertainty	Mass fraction of water	uncertainty	Mass fraction of water	uncertainty	Mass fraction of 1-butanol	uncertainty
365.95	.895	.001	.105	.001	.73	.001	.27	.001	.424	.001	.576	.001
367.67	.666	.001	.191	.001	.432	.001	.421	.001	.402	.001	.581	.001
367.83	.638	.001	.209	.001	.399	.001	.443	.001	.401	.001	.58	.001
366.11	.877	.001	.108	.001	.697	.001	.286	.001	.423	.001	.575	.001
366.26	.853	.001	.118	.001	.679	.001	.287	.001	.42	.001	.577	.001
366.49	.833	.001	.123	.001	.648	.001	.304	.001	.418	.001	.577	.001
366.64	.807	.001	.13	.001	.612	.001	.322	.001	.413	.001	.578	.001
366.78	.785	.001	.136	.001	.585	.001	.335	.001	.41	.001	.58	.001
367.02	.75	.001	.151	.001	.561	.001	.343	.001	.41	.001	.579	.001
367.26	.714	.001	.166	.001	.525	.001	.365	.001	.408	.001	.578	.001
367.41	.693	.001	.175	.001	.482	.001	.388	.001	.405	.001	.579	.001

System: 1-butanol + water; phases: Liquid, Gas
Property: Azeotropic composition: mass fraction of water (Liquid); method: By X=Y
Temperature, K	Azeotropic composition: mass fraction of water	uncertainty
365.95	.474	.001

System: 1-butanol + water; phases: Liquid, Gas
Property: Azeotropic composition: mass fraction of 1-butanol (Liquid); method: By X=Y
Temperature, K	Azeotropic composition: mass fraction of 1-butanol	uncertainty
365.95	.526	.001
