Measured thermophysical data. Isothermal vapor liquid equilibria for binary mixtures of benzene, toluene,  m-xylene, and N-methylformamide at 333.15K and 353.15K
Source: Fluid Phase Equilib., 2009, 10.1016/j.fluid.2009.03.012
Compound 1: benzene, C6H6
Compound 2: toluene, C7H8
Compound 3: 1,3-dimethylbenzene, C8H10
Compound 4: N-methylmethanamide, C2H5NO
Compound 5: water, H2O
Compound 6: nitrogen, N2

System: benzene + toluene; phases: Liquid, Gas
Property: Mass density, kg/m3 (Liquid); method: Vibrating tube method
Temperature, K	Mole fraction of benzene	Mass density, kg/m3	uncertainty
333.15	0	829.1	
333.15	.104	829.7	
333.15	.202	830.4	
333.15	.303	831.1	
333.15	.398	831.9	
333.15	.505	832.8	
333.15	.601	833.7	
333.15	.696	834.6	
333.15	.803	835.7	
333.15	.845	836.1	
333.15	1	837.9	
353.15	0	809.8	
353.15	.096	810.4	
353.15	.207	811.1	
353.15	.301	811.8	
353.15	.401	812.6	
353.15	.5	813.4	
353.15	.591	814.3	
353.15	.702	815.3	
353.15	.802	816.4	
353.15	.894	817.4	
353.15	1	818.6	

System: benzene + toluene; phases: Gas, Liquid
Property: Mass density, kg/m3 (Gas); method: Vibrating tube method
Temperature, K	Mole fraction of benzene	Mass density, kg/m3	uncertainty
333.15	0	.502	
333.15	.104	.631	
333.15	.202	.76	
333.15	.303	.914	
333.15	.398	1.042	
333.15	.505	1.171	
333.15	.601	1.3	
333.15	.696	1.403	
333.15	.803	1.48	
333.15	.845	1.506	
333.15	1	1.584	
353.15	0	1.678	
353.15	.096	1.822	
353.15	.207	1.961	
353.15	.301	2.052	
353.15	.401	2.148	
353.15	.5	2.267	
353.15	.591	2.337	
353.15	.702	2.446	
353.15	.802	2.526	
353.15	.894	2.571	
353.15	1	2.658	

System: benzene + toluene; phases: Liquid, Gas
Property: Vapor or sublimation pressure, kPa (Liquid); method: Closed cell (Static) method
Temperature, K	Mole fraction of benzene	Vapor or sublimation pressure, kPa	uncertainty
333.15	0	18.3	.1
333.15	.104	21.7	.1
333.15	.202	24.8	.1
333.15	.303	28.3	.1
333.15	.398	31.7	.1
333.15	.505	35.1	.1
333.15	.601	38.1	.1
333.15	.696	42	.1
333.15	.803	45.5	.1
333.15	.845	47.2	.1
333.15	1	52	.1
353.15	0	38.5	.1
353.15	.096	44.8	.1
353.15	.207	50.5	.1
353.15	.301	56.8	.1
353.15	.401	63.2	.1
353.15	.5	69.5	.1
353.15	.591	75.8	.1
353.15	.702	82.7	.1
353.15	.802	88.4	.1
353.15	.894	94.7	.1
353.15	1	100.5	.1

System: benzene + N-methylmethanamide; phases: Liquid, Gas
Property: Mass density, kg/m3 (Liquid); method: Vibrating tube method
Temperature, K	Mole fraction of benzene	Mass density, kg/m3	uncertainty
333.15	0	968.3	
333.15	.05	963.1	
333.15	.098	955.2	
333.15	.201	943.1	
333.15	.304	927.7	
333.15	.399	916.1	
333.15	.499	901.7	
333.15	.598	890.5	
333.15	.691	876.1	
333.15	.802	861.3	
333.15	.906	849	
333.15	1	834.8	
353.15	0	951.8	
353.15	.046	944.4	
353.15	.103	938.4	
353.15	.203	922.7	
353.15	.298	910.6	
353.15	.387	897.3	
353.15	.493	884.6	
353.15	.601	868.7	
353.15	.702	853.7	
353.15	.804	839.6	
353.15	.904	827.1	
353.15	1	813.5	

System: benzene + N-methylmethanamide; phases: Gas, Liquid
Property: Mass density, kg/m3 (Gas); method: Vibrating tube method
Temperature, K	Mole fraction of benzene	Mass density, kg/m3	uncertainty
333.15	.05	.331	
333.15	.098	.6	
333.15	.201	.873	
333.15	.304	1.062	
333.15	.399	1.186	
333.15	.499	1.256	
333.15	.598	1.287	
333.15	.691	1.296	
333.15	.802	1.355	
333.15	.906	1.416	
333.15	1	1.497	
353.15	.046	.495	
353.15	.103	.947	
353.15	.203	1.405	
353.15	.298	1.996	
353.15	.387	2.189	
353.15	.493	2.178	
353.15	.601	2.3	
353.15	.702	2.345	
353.15	.804	2.437	
353.15	.904	2.52	
353.15	1	2.711	

System: benzene + N-methylmethanamide; phases: Liquid, Gas
Property: Vapor or sublimation pressure, kPa (Liquid); method: Closed cell (Static) method
Temperature, K	Mole fraction of benzene	Vapor or sublimation pressure, kPa	uncertainty
333.15	0	.5	.1
333.15	.05	12.2	.1
333.15	.098	21.2	.1
333.15	.201	29.9	.1
333.15	.304	37.1	.1
333.15	.399	40.7	.1
333.15	.499	43.8	.1
333.15	.598	44.1	.1
333.15	.691	44.5	.1
333.15	.802	47.2	.1
333.15	.906	49.3	.1
333.15	1	51.7	.1
353.15	0	1.2	.1
353.15	.046	19	.1
353.15	.103	35.5	.1
353.15	.203	56	.1
353.15	.298	70.1	.1
353.15	.387	81	.1
353.15	.493	85.1	.1
353.15	.601	86.2	.1
353.15	.702	88.3	.1
353.15	.804	91.2	.1
353.15	.904	93.5	.1
353.15	1	100.8	.1

System: 1,3-dimethylbenzene + toluene; phases: Liquid, Gas
Property: Mass density, kg/m3 (Liquid); method: Vibrating tube method
Temperature, K	Mole fraction of toluene	Mass density, kg/m3	uncertainty
333.15	0	838.8	
333.15	.099	836.8	
333.15	.204	835.1	
333.15	.302	833.5	
333.15	.407	832.3	
333.15	.502	831.2	
333.15	.601	830.4	
333.15	.699	829.7	
333.15	.798	829.3	
333.15	.897	829.1	
333.15	1	829.2	
353.15	0	819.4	
353.15	.098	817.5	
353.15	.204	815.8	
353.15	.3	814.2	
353.15	.408	812.9	
353.15	.503	811.8	
353.15	.597	811	
353.15	.7	810.3	
353.15	.802	809.9	
353.15	.899	809.7	
353.15	1	809.7	

System: 1,3-dimethylbenzene + toluene; phases: Gas, Liquid
Property: Mass density, kg/m3 (Gas); method: Vibrating tube method
Temperature, K	Mole fraction of toluene	Mass density, kg/m3	uncertainty
333.15	0	.245	
333.15	.099	.283	
333.15	.204	.316	
333.15	.302	.372	
333.15	.407	.425	
333.15	.502	.451	
333.15	.601	.474	
333.15	.699	.516	
333.15	.798	.558	
333.15	.897	.585	
333.15	1	.635	
355.15	0	.52	
355.15	.098	.613	
355.15	.204	.715	
355.15	.3	.755	
355.15	.408	.832	
355.15	.503	.916	
355.15	.597	.98	
355.15	.7	1.054	
355.15	.802	1.107	
355.15	.899	1.174	
355.15	1	1.248	

System: 1,3-dimethylbenzene + toluene; phases: Liquid, Gas
Property: Vapor or sublimation pressure, kPa (Liquid); method: Closed cell (Static) method
Temperature, K	Mole fraction of toluene	Vapor or sublimation pressure, kPa	uncertainty
333.15	0	6.8	.1
333.15	.099	7.9	.1
333.15	.204	9.1	.1
333.15	.302	11	.1
333.15	.407	12.5	.1
333.15	.502	13.3	.1
333.15	.601	14.2	.1
333.15	.699	15.1	.1
333.15	.798	16.3	.1
333.15	.897	17.6	.1
333.15	1	18.7	.1
353.15	0	15.3	.1
353.15	.098	18.3	.1
353.15	.204	21.3	.1
353.15	.3	23.3	.1
353.15	.408	25.8	.1
353.15	.503	28.5	.1
353.15	.597	30.6	.1
353.15	.7	32.4	.1
353.15	.802	35.1	.1
353.15	.899	37.3	.1
353.15	1	39.1	.1

System: toluene + N-methylmethanamide; phases: Liquid, Gas
Property: Mass density, kg/m3 (Liquid); method: Vibrating tube method
Temperature, K	Mole fraction of toluene	Mass density, kg/m3	uncertainty
333.15	0	968.3	
333.15	.101	954.1	
333.15	.206	938.4	
333.15	.301	928.1	
333.15	.402	913.9	
333.15	.502	897.9	
333.15	.59	885.6	
333.15	.699	872.3	
333.15	.782	859.5	
333.15	.874	849.8	
333.15	1	829.1	
353.15	0	951.8	
353.15	.1	936.6	
353.15	.209	923.1	
353.15	.298	909.5	
353.15	.397	894.4	
353.15	.498	882	
353.15	.6	865.6	
353.15	.708	852.2	
353.15	.803	837.7	
353.15	.901	824.1	
353.15	1	808.7	

System: toluene + N-methylmethanamide; phases: Gas, Liquid
Property: Mass density, kg/m3 (Gas); method: Vibrating tube method
Temperature, K	Mole fraction of toluene	Mass density, kg/m3	uncertainty
333.15	.101	.241	
333.15	.206	.418	
333.15	.301	.487	
333.15	.402	.514	
333.15	.502	.515	
333.15	.59	.531	
333.15	.699	.529	
333.15	.782	.536	
333.15	.874	.587	
333.15	1	.628	
353.15	.1	.495	
353.15	.209	.759	
353.15	.298	.931	
353.15	.397	1.007	
353.15	.498	1.03	
353.15	.6	1.052	
353.15	.708	1.077	
353.15	.803	1.12	
353.15	.901	1.184	
353.15	1	1.242	

System: toluene + N-methylmethanamide; phases: Liquid, Gas
Property: Vapor or sublimation pressure, kPa (Liquid); method: Closed cell (Static) method
Temperature, K	Mole fraction of toluene	Vapor or sublimation pressure, kPa	uncertainty
333.15	0	.5	.1
333.15	.101	7.3	.1
333.15	.206	12.8	.1
333.15	.301	14.8	.1
333.15	.402	15.3	.1
333.15	.502	15.6	.1
333.15	.59	15.8	.1
333.15	.699	16	.1
333.15	.782	16.2	.1
333.15	.874	17.4	.1
333.15	1	18.7	.1
353.15	0	1.2	.1
353.15	.1	16	.1
353.15	.209	24.5	.1
353.15	.298	29.4	.1
353.15	.397	31.9	.1
353.15	.498	32.9	.1
353.15	.6	33.9	.1
353.15	.708	34.3	.1
353.15	.803	35.3	.1
353.15	.901	37	.1
353.15	1	38.9	.1
