Measured thermophysical data. Experimental data on xanthohumol solubility in supercritical carbon dioxide
Source: Fluid Phase Equilib., 2013, 10.1016/j.fluid.2013.10.001
Compound 1: xanthohumol, C21H22O5, purity 98%
Compound 2: carbon dioxide, CO2, purity 99.9%

System: carbon dioxide + xanthohumol; phases: Fluid (supercritical or subcritical phases), Crystal
Property: Mole fraction of xanthohumol (Fluid (supercritical or subcritical phases)); method: UV Spectrophotometry
Pressure, kPa	Temperature, K	Mole fraction of xanthohumol	uncertainty
35000	328.15	.0000012	.00000001
50000	328.15	.000002	.00000004
65000	328.15	.000003	.00000002
80000	328.15	.0000031	.00000009
95000	328.15	.000003	.00000004
35000	343.15	.0000028	.00000006
50000	343.15	.0000049	.00000009
65000	343.15	.0000075	.00000019
80000	343.15	.0000086	.0000002
95000	343.15	.0000101	.00000028
35000	358.15	.0000031	.00000003
50000	358.15	.0000069	.00000016
65000	358.15	.0000104	.0000002
80000	358.15	.0000144	.00000043
95000	358.15	.0000177	.0000005
