Measured thermophysical data. Experimental determination of solubility and metastable zone width of 3,4-bis(3-nitrofurazan-4-yl)furoxan (DNTF) in (acetic acid + water) systems from (298.15 K - 338.15 K)
Source: Fluid Phase Equilib., 2015, 10.1016/j.fluid.2015.08.028
Compound 1: 3,4-bis(3-nitrofurazan-4-yl)furoxan, C6N8O8
Compound 2: acetic acid, C2H4O2, purity 99.5%
Compound 3: water, H2O, purity 99.8%

System: 3,4-bis(3-nitrofurazan-4-yl)furoxan; phases: Crystal, Liquid, Air at 1 atmosphere
Property: Normal melting temperature, K (Crystal); method: DSC/DTA
Normal melting temperature, K	uncertainty
383.15	

System: acetic acid + water + 3,4-bis(3-nitrofurazan-4-yl)furoxan; phases: Liquid, Crystal
Fixed: Pressure, kPa = 100
Property: Mole fraction of 3,4-bis(3-nitrofurazan-4-yl)furoxan (Liquid); method: Titration method
Temperature, K	Solvent: Mole fraction of acetic acid	Mole fraction of 3,4-bis(3-nitrofurazan-4-yl)furoxan	uncertainty
298.15	1	.04135	.002
298.15	.739	.010907	.002
298.15	.557	.003602	.002
298.15	.423	.001132	.002
298.15	.321	.000385	.002
298.15	.239	.000123	.002
308.15	1	.05515	.002
308.15	.739	.015825	.002
308.15	.557	.005119	.002
308.15	.423	.001711	.002
308.15	.321	.000589	.002
308.15	.239	.000205	.002
318.15	1	.07466	.002
318.15	.739	.022655	.002
318.15	.557	.00789	.002
318.15	.423	.002759	.002
318.15	.321	.00099	.002
318.15	.239	.000329	.002
328.15	1	.10273	.002
328.15	.739	.034725	.002
328.15	.557	.012223	.002
328.15	.423	.004495	.002
328.15	.321	.001679	.002
328.15	.239	.000587	.002
338.15	1	.1448	.002
338.15	.739	.058922	.002
338.15	.557	.020633	.002
338.15	.423	.007354	.002
338.15	.321	.00278	.002
338.15	.239	.001116	.002
