Measured thermophysical data. Surface tension of ethyl fluoride (HFC161) from (233 to 373) K
Source: Fluid Phase Equilib., 2012, 10.1016/j.fluid.2011.12.015
Compound 1: fluoroethane, C2H5F
Compound 2: 2-methylpropane, C4H10

System: fluoroethane; phases: Liquid, Gas
Property: Surface tension liquid-gas, N/m (Liquid); method: Capillary rise
Temperature, K	Surface tension liquid-gas, N/m	uncertainty
233.16	.01914	.00015
237.64	.018429	.00015
242.97	.017714	.00015
248.24	.016821	.00015
252.62	.016082	.00015
258.02	.015361	.00015
262.17	.014562	.00015
267.16	.013827	.00015
272.23	.012991	.00015
278.13	.012145	.00015
282.1	.011613	.00015
287.06	.010842	.00015
292.1	.0101	.00015
297.08	.009407	.00015
302.09	.008703	.00015
305.89	.00824	.00015
307.08	.007985	.00015
309.24	.007678	.00015
314.06	.006989	.00015
319.14	.006313	.00015
324.1	.005619	.00015
329.16	.005051	.00015
334.16	.004466	.00015
339.11	.003776	.00015
341.07	.003717	.00015
343.13	.003291	.00015
346.13	.003123	.00015
352.13	.002441	.00015
357.15	.001864	.00015
363.16	.00122	.00015
368.17	.000723	.00015
373.1	.000327	.00015

System: 2-methylpropane; phases: Liquid, Gas
Property: Surface tension liquid-gas, N/m (Liquid); method: Capillary rise
Temperature, K	Surface tension liquid-gas, N/m	uncertainty
275.6	.01267	.00015
283.9	.011673	.00015
292.85	.010664	.00015
297.91	.010143	.00015
303.1	.00954	.00015
308.1	.008975	.00015
313.07	.00837	.00015
318.21	.00788	.00015
323.19	.007315	.00015
328.16	.006767	.00015
333.17	.006276	.00015
338.17	.00574	.00015
343.16	.005238	.00015
