Measured thermophysical data. Experimental investigation of the density and viscosity of CO2-loaded aqueous alkanolamine solutions
Source: Fluid Phase Equilib., 2015, 10.1016/j.fluid.2015.06.034
Compound 1: carbon dioxide, CO2, purity 99.95%
Compound 2: N-methyldiethanolamine, C5H13NO2, purity 99%
Compound 3: 2-amino-2-methyl-1-propanol, C4H11NO, purity 95%
Compound 4: diisopropanolamine, C6H15NO2, purity 98%
Compound 5: water, H2O

System: N-methyldiethanolamine + carbon dioxide + water; phases: Liquid, Gas
Fixed: Solvent: Mass fraction of N-methyldiethanolamine = .45
Property: Mole fraction of carbon dioxide (Liquid); method: Phase equilibration
Temperature, K	Partial pressure, kPa of carbon dioxide	Mole fraction of carbon dioxide	uncertainty
303.15	0	0	0
303.15	5	.014	.0004
303.15	15	.046	.0005
303.15	38	.063	.0006
303.15	88	.078	.0006
303.15	175	.087	.0004
303.15	436	.097	.0007
323.15	0	0	0
323.15	8	.014	.0005
323.15	25	.025	.0005
323.15	50	.046	.0006
323.15	112	.062	.0006
323.15	241	.077	.0004
323.15	399	.085	.0007
323.15	764	.094	.0007
323.15	1221	.099	.0004
343.15	0	0	0
343.15	21	.014	.0005
343.15	58	.024	.0006
343.15	155	.045	.0006
343.15	316	.061	.0004
343.15	609	.073	.0007
343.15	868	.081	.0007
343.15	1352	.089	.0004
343.15	1800	.094	.0005
363.15	0	0	0
363.15	89	.013	.0007
363.15	156	.024	.0006
363.15	427	.043	.0005
363.15	784	.057	.0007
363.15	1274	.068	.0006
363.15	1655	.075	.0005
363.15	2144	.083	.0007

System: N-methyldiethanolamine + carbon dioxide + water; phases: Liquid, Gas
Fixed: Solvent: Mass fraction of N-methyldiethanolamine = .45
Property: Viscosity, Pa*s (Liquid); method: Falling or rolling sphere viscometry
Temperature, K	Partial pressure, kPa of carbon dioxide	Viscosity, Pa*s	uncertainty
303.15	0	.006719	.000255
303.15	5	.007865	.000352
303.15	15	.009695	.000352
303.15	38	.011007	.000369
303.15	88	.011546	.000426
303.15	175	.012595	.000422
303.15	436	.013364	.000276
323.15	0	.003558	.000194
323.15	8	.003882	.000206
323.15	25	.004362	.000152
323.15	50	.005	.000272
323.15	112	.005516	.000286
323.15	241	.00592	.000315
323.15	399	.006322	.000317
343.15	21	.002204	.000143
343.15	58	.00235	.000132
343.15	155	.00259	.000213
343.15	316	.003	.000228
343.15	609	.003317	.000263
343.15	868	.003498	.000276
343.15	1800	.003429	.00028
363.15	0	.001107	.00008
363.15	89	.001237	.00014
363.15	156	.001398	.000132
363.15	427	.001597	.00018
363.15	784	.001779	.000157
363.15	1274	.001928	.00013
363.15	1655	.001972	.00016
363.15	2144	.002018	.000174

System: N-methyldiethanolamine + carbon dioxide + water; phases: Liquid, Gas
Fixed: Solvent: Mass fraction of N-methyldiethanolamine = .45
Property: Mass density, kg/m3 (Liquid); method: Vibrating tube method
Temperature, K	Mole fraction of carbon dioxide	Mass density, kg/m3	uncertainty
303.15	0	1037.2	2.5
303.15	.014	1049	2.5
303.15	.046	1090.4	2.5
303.15	.063	1116	2.5
303.15	.078	1136.6	2.5
303.15	.087	1149.2	2.5
303.15	.097	1166.8	2.5
323.15	0	1024.8	2.5
323.15	.014	1036.6	2.5
323.15	.025	1050.1	2.5
323.15	.046	1081.9	2.5
323.15	.062	1103.5	2.5
323.15	.077	1123	2.5
323.15	.085	1134.8	2.5
323.15	.094	1151	2.5
323.15	.099	1154.9	2.5
343.15	0	1011.5	2.5
343.15	.014	1023.1	2.5
343.15	.024	1036.5	2.5
343.15	.045	1065.4	2.5
343.15	.061	1085.1	2.5
343.15	.073	1102	2.5
343.15	.081	1112.2	2.5
343.15	.089	1121.7	2.5
343.15	.094	1133.2	2.5
363.15	0	996.4	2.5
363.15	.013	1007.9	2.5
363.15	.024	1021.1	2.5
363.15	.043	1047	2.5
363.15	.057	1064.4	2.5
363.15	.068	1079.1	2.5
363.15	.075	1092	2.5
363.15	.083	1100.4	2.5

System: N-methyldiethanolamine + 2-amino-2-methyl-1-propanol + water; phases: Liquid, Gas
Fixed: Mass fraction of N-methyldiethanolamine = .45
Fixed: Mass fraction of 2-amino-2-methyl-1-propanol = .05
Property: Vapor or sublimation pressure, kPa (Liquid); method: Closed cell (Static) method
Temperature, K	Vapor or sublimation pressure, kPa	uncertainty
303.15	3.55	.4
313.15	6.35	.4
323.15	10.8	.4
343.15	27.9	.4
363.15	63.8	.4

System: N-methyldiethanolamine + 2-amino-2-methyl-1-propanol + water; phases: Liquid, Gas
Fixed: Mass fraction of N-methyldiethanolamine = .45
Fixed: Mass fraction of 2-amino-2-methyl-1-propanol = .05
Property: Viscosity, Pa*s (Liquid); method: Falling or rolling sphere viscometry
Temperature, K	Viscosity, Pa*s	uncertainty
303.15	.007615	.000093
313.15	.005053	.000282
323.15	.003454	.000229
343.15	.002057	.000179
363.15	.00113	.000099

System: N-methyldiethanolamine + 2-amino-2-methyl-1-propanol + water; phases: Liquid, Gas
Fixed: Mass fraction of N-methyldiethanolamine = .45
Fixed: Mass fraction of 2-amino-2-methyl-1-propanol = .05
Property: Mass density, kg/m3 (Liquid); method: Vibrating tube method
Temperature, K	Mass density, kg/m3	uncertainty
303.15	1030.2	2.5
313.15	1024.5	2.5
323.15	1018.2	2.5
343.15	1004.1	2.5
363.15	987.8	2.5

System: N-methyldiethanolamine + diisopropanolamine + water; phases: Liquid, Gas
Fixed: Mass fraction of N-methyldiethanolamine = .45
Fixed: Mass fraction of diisopropanolamine = .05
Property: Vapor or sublimation pressure, kPa (Liquid); method: Closed cell (Static) method
Temperature, K	Vapor or sublimation pressure, kPa	uncertainty
303.15	3.49	.4
323.15	10.4	.4
343.15	27	.4
363.15	63.7	.4

System: N-methyldiethanolamine + diisopropanolamine + water; phases: Liquid, Gas
Fixed: Mass fraction of N-methyldiethanolamine = .45
Fixed: Mass fraction of diisopropanolamine = .05
Property: Viscosity, Pa*s (Liquid); method: Falling or rolling sphere viscometry
Temperature, K	Viscosity, Pa*s	uncertainty
303.15	.005977	.000094
323.15	.0029	.000137
343.15	.001737	.000036
363.15	.00093	.000067

System: N-methyldiethanolamine + diisopropanolamine + water; phases: Liquid, Gas
Fixed: Mass fraction of N-methyldiethanolamine = .45
Fixed: Mass fraction of diisopropanolamine = .05
Property: Mass density, kg/m3 (Liquid); method: Vibrating tube method
Temperature, K	Mass density, kg/m3	uncertainty
303.15	1011.4	2.5
323.15	1003.1	2.5
343.15	992.6	2.5
363.15	980.1	2.5

System: N-methyldiethanolamine + water; phases: Liquid, Gas
Fixed: Mass fraction of N-methyldiethanolamine = .45
Property: Vapor or sublimation pressure, kPa (Liquid); method: Closed cell (Static) method
Temperature, K	Vapor or sublimation pressure, kPa	uncertainty
303.15	3.63	.4
323.15	11	.4
343.15	28.3	.4
363.15	63.9	.4

System: N-methyldiethanolamine + water; phases: Liquid, Gas
Property: Mass density, kg/m3 (Liquid); method: Vibrating tube method
Temperature, K	Mass fraction of N-methyldiethanolamine	Mass density, kg/m3	uncertainty
303.15	.45	1037.2	2.5
323.15	.45	1024.8	2.5
343.15	.45	1011.5	2.5
363.15	.45	996.4	2.5
