Measured thermophysical data. Surface tensions of aqueous solutions of lithium dodecyl sulfate, sodium oleate,  and dodecylbenzene sulfonic acid in contact with methane under  hydrate-forming conditions
Source: Fluid Phase Equilib., 2011, 10.1016/j.fluid.2011.11.011
Compound 1: methane, CH4, purity 99.9%
Compound 2: lithium dodecyl sulfate, C12H25LiO4S, purity 99%
Compound 3: sodium oleate, C18H33NaO2, purity 98%
Compound 4: dodecylbenzenesulfonic acid, C18H30O3S, purity 90%
Compound 5: water, H2O

System: methane + lithium dodecyl sulfate + water; phases: Liquid, Gas
Fixed: Temperature, K = 275
Fixed: Pressure, kPa = 3900
Property: Surface tension liquid-gas, N/m (Liquid); method: Pendant drop shape
Mass ratio of solute to solvent of lithium dodecyl sulfate	Surface tension liquid-gas, N/m	uncertainty
0	.0683	.0010245
.001	.0438	.000657
.002	.0385	.0005775
.0025	.0362	.000543
.003	.0316	.000474
.0035	.0306	.000459
.004	.0309	.0004635
.001	.0503	.0007545
.0015	.042	.00063
.002	.0373	.0005595
.0025	.0347	.0005205
.003	.0307	.0004605
.004	.0315	.0004725

System: methane + sodium oleate + water; phases: Liquid, Gas
Fixed: Temperature, K = 275
Fixed: Pressure, kPa = 4000
Property: Surface tension liquid-gas, N/m (Liquid); method: Pendant drop shape
Mass ratio of solute to solvent of sodium oleate	Surface tension liquid-gas, N/m	uncertainty
0	.0671	.0010065
.00001	.0443	.0006645
.00005	.0239	.0003585
.0001	.0208	.000312
.0002	.0193	.0002895
.0003	.0195	.0002925
.0004	.0213	.0003195
.0005	.0228	.000342
.0006	.0183	.0002745

System: methane + water + dodecylbenzenesulfonic acid; phases: Liquid, Gas
Fixed: Temperature, K = 275
Fixed: Pressure, kPa = 4000
Property: Surface tension liquid-gas, N/m (Liquid); method: Pendant drop shape
Mass ratio of solute to solvent of dodecylbenzenesulfonic acid	Surface tension liquid-gas, N/m	uncertainty
0	.0671	.0010065
.0001	.0568	.000852
.0003	.0415	.0006225
.0004	.0304	.000456
.0005	.0321	.0004815
.0006	.0327	.0004905
.0007	.0318	.000477
.001	.0325	.0004875

System: lithium dodecyl sulfate + water; phases: Liquid, Air at 1 atmosphere
Fixed: Temperature, K = 275
Property: Surface tension liquid-gas, N/m (Liquid); method: Pendant drop shape
Mass ratio of solute to solvent of lithium dodecyl sulfate	Surface tension liquid-gas, N/m	uncertainty
0	.0727	.0010905
500	.0566	.000849
1000	.0531	.0007965
2000	.0412	.000618
2500	.0389	.0005835
3000	.0373	.0005595
3500	.037	.000555
4000	.0367	.0005505
5000	.0367	.0005505
