Measured thermophysical data. Excess molar volumes and excess molar enthalpies for binary mixtures of 1,2-dichloropropane with methyl ethanoate, methyl propanoate, and methyl  butanoate at T = 298.15K
Source: Fluid Phase Equilib., 2011, 10.1016/j.fluid.2011.01.005
Compound 1: methyl ethanoate, C3H6O2, purity 99.5%
Compound 2: methyl propanoate, C4H8O2, purity 99%
Compound 3: methyl butanoate, C5H10O2, purity 99%
Compound 4: 1,2-dichloropropane, C3H6Cl2, purity 99%

System: methyl ethanoate; phases: Liquid
Fixed: Pressure, kPa = 101.325
Property: Mass density, kg/m3 (Liquid); method: Vibrating tube method
Temperature, K	Mass density, kg/m3	uncertainty
298.15	927.06	

System: methyl ethanoate; phases: Liquid
Fixed: Pressure, kPa = 101.325
Property: Refractive index (Na D-line) (Liquid); method: Standard Abbe refractometry
Temperature, K	Refractive index (Na D-line)	uncertainty
298.15	1.35906	

System: methyl propanoate; phases: Liquid
Fixed: Pressure, kPa = 101.325
Property: Mass density, kg/m3 (Liquid); method: Vibrating tube method
Temperature, K	Mass density, kg/m3	uncertainty
298.15	910.28	

System: methyl propanoate; phases: Liquid
Fixed: Pressure, kPa = 101.325
Property: Refractive index (Na D-line) (Liquid); method: Standard Abbe refractometry
Temperature, K	Refractive index (Na D-line)	uncertainty
298.15	1.37421	

System: methyl butanoate; phases: Liquid
Fixed: Pressure, kPa = 101.325
Property: Mass density, kg/m3 (Liquid); method: Vibrating tube method
Temperature, K	Mass density, kg/m3	uncertainty
298.15	892.94	

System: methyl butanoate; phases: Liquid
Fixed: Pressure, kPa = 101.325
Property: Refractive index (Na D-line) (Liquid); method: Standard Abbe refractometry
Temperature, K	Refractive index (Na D-line)	uncertainty
298.15	1.38502	

System: 1,2-dichloropropane; phases: Liquid
Fixed: Pressure, kPa = 101.325
Property: Mass density, kg/m3 (Liquid); method: Vibrating tube method
Temperature, K	Mass density, kg/m3	uncertainty
298.15	1149.03	

System: 1,2-dichloropropane; phases: Liquid
Fixed: Pressure, kPa = 101.325
Property: Refractive index (Na D-line) (Liquid); method: Standard Abbe refractometry
Temperature, K	Refractive index (Na D-line)	uncertainty
298.15	1.43656	

System: 1,2-dichloropropane + methyl ethanoate; phases: Liquid
Fixed: Temperature, K = 298.15
Fixed: Pressure, kPa = 101
Property: Mass density, kg/m3 (Liquid); method: Vibrating tube method
Mole fraction of 1,2-dichloropropane	Mass density, kg/m3	uncertainty
.049	939.96	
.0998	952.99	
.1508	965.82	
.1995	977.91	
.249	989.88	
.2996	1001.96	
.3498	1013.72	
.3993	1025.11	
.4462	1035.68	
.4951	1046.55	
.5475	1057.97	
.6024	1069.74	
.6505	1079.88	
.6961	1089.35	
.7451	1099.3	
.7979	1109.94	
.8498	1120.18	
.9045	1130.8	
.9513	1139.78	

System: 1,2-dichloropropane + methyl ethanoate; phases: Liquid
Fixed: Temperature, K = 298.15
Fixed: Pressure, kPa = 101
Property: Excess molar volume, m3/mol (Liquid); method: Calculated with densities of this investigation
Mole fraction of 1,2-dichloropropane	Excess molar volume, m3/mol	uncertainty
.049	.0000000284	.0000000005
.0998	.0000000613	.0000000005
.1508	.0000000897	.0000000005
.1995	.0000001066	.0000000005
.249	.0000001274	.0000000005
.2996	.0000001408	.0000000005
.3498	.0000001489	.0000000005
.3993	.0000001562	.0000000005
.4462	.0000001603	.0000000005
.4951	.0000001615	.0000000005
.5475	.0000001596	.0000000005
.6024	.0000001533	.0000000005
.6505	.0000001435	.0000000005
.6961	.0000001329	.0000000005
.7451	.0000001235	.0000000005
.7979	.0000001022	.0000000005
.8498	.0000000826	.0000000005
.9045	.0000000591	.0000000005
.9513	.0000000333	.0000000005

System: 1,2-dichloropropane + methyl ethanoate; phases: Liquid
Fixed: Temperature, K = 298.15
Fixed: Pressure, kPa = 101
Property: Excess molar enthalpy (molar enthalpy of mixing), kJ/mol (Liquid); method: isothermal calorimetry
Mole fraction of 1,2-dichloropropane	Excess molar enthalpy (molar enthalpy of mixing), kJ/mol	uncertainty
.049	-.0303	.001
.099	-.0658	.001
.151	-.0956	.001
.204	-.1249	.001
.259	-.1504	.001
.295	-.1654	.001
.352	-.1804	.001
.41	-.1931	.001
.449	-.1986	.001
.509	-.2023	.001
.55	-.2018	.001
.592	-.1976	.001
.656	-.1873	.001
.699	-.1789	.001
.744	-.1628	.001
.811	-.1331	.001
.858	-.1098	.001
.905	-.0773	.001
.952	-.0438	.001

System: 1,2-dichloropropane + methyl propanoate; phases: Liquid
Fixed: Temperature, K = 298.15
Fixed: Pressure, kPa = 101
Property: Mass density, kg/m3 (Liquid); method: Vibrating tube method
Mole fraction of 1,2-dichloropropane	Mass density, kg/m3	uncertainty
.0491	922.11	
.098	933.85	
.1476	945.76	
.2006	958.45	
.2506	970.4	
.3014	982.53	
.3525	994.71	
.4008	1006.22	
.4507	1018.12	
.5019	1030.27	
.5519	1042.16	
.6004	1053.7	
.6526	1066.11	
.701	1077.62	
.7518	1089.7	
.8013	1101.47	
.8474	1112.47	
.899	1124.77	
.9481	1136.53	

System: 1,2-dichloropropane + methyl propanoate; phases: Liquid
Fixed: Temperature, K = 298.15
Fixed: Pressure, kPa = 101
Property: Excess molar volume, m3/mol (Liquid); method: Calculated with densities of this investigation
Mole fraction of 1,2-dichloropropane	Excess molar volume, m3/mol	uncertainty
.0491	.0000000066	.0000000005
.098	.0000000178	.0000000005
.1476	.0000000255	.0000000005
.2006	.0000000335	.0000000005
.2506	.000000041	.0000000005
.3014	.00000005	.0000000005
.3525	.0000000569	.0000000005
.4008	.0000000638	.0000000005
.4507	.0000000679	.0000000005
.5019	.0000000729	.0000000005
.5519	.000000076	.0000000005
.6004	.000000077	.0000000005
.6526	.0000000768	.0000000005
.701	.0000000746	.0000000005
.7518	.0000000701	.0000000005
.8013	.000000063	.0000000005
.8474	.0000000548	.0000000005
.899	.0000000429	.0000000005
.9481	.000000025	.0000000005

System: 1,2-dichloropropane + methyl propanoate; phases: Liquid
Fixed: Temperature, K = 298.15
Fixed: Pressure, kPa = 101
Property: Excess molar enthalpy (molar enthalpy of mixing), kJ/mol (Liquid); method: isothermal calorimetry
Mole fraction of 1,2-dichloropropane	Excess molar enthalpy (molar enthalpy of mixing), kJ/mol	uncertainty
.058	-.0598	.001
.098	-.1029	.001
.157	-.1474	.001
.197	-.1728	.001
.257	-.2073	.001
.297	-.2302	.001
.357	-.2524	.001
.397	-.2627	.001
.457	-.2668	.001
.497	-.2667	.001
.557	-.2608	.001
.597	-.2551	.001
.658	-.233	.001
.698	-.2126	.001
.758	-.1782	.001
.799	-.1541	.001
.859	-.1111	.001
.9	-.081	.001
.94	-.0492	.001

System: 1,2-dichloropropane + methyl butanoate; phases: Liquid
Fixed: Temperature, K = 298.15
Fixed: Pressure, kPa = 101
Property: Mass density, kg/m3 (Liquid); method: Vibrating tube method
Mole fraction of 1,2-dichloropropane	Mass density, kg/m3	uncertainty
.0522	904.47	
.0971	914.55	
.1477	926.04	
.1963	937.22	
.2527	950.42	
.3013	961.92	
.346	972.67	
.3982	985.42	
.4518	998.7	
.4969	1010.04	
.5496	1023.51	
.6002	1036.65	
.649	1049.54	
.6976	1062.57	
.7488	1076.55	
.7983	1090.31	
.8511	1105.23	
.8983	1118.83	
.9514	1134.46	

System: 1,2-dichloropropane + methyl butanoate; phases: Liquid
Fixed: Temperature, K = 298.15
Fixed: Pressure, kPa = 101
Property: Excess molar volume, m3/mol (Liquid); method: Calculated with densities of this investigation
Mole fraction of 1,2-dichloropropane	Excess molar volume, m3/mol	uncertainty
.0522	.0000000048	.0000000005
.0971	.0000000081	.0000000005
.1477	.000000013	.0000000005
.1963	.0000000178	.0000000005
.2527	.000000024	.0000000005
.3013	.0000000308	.0000000005
.346	.0000000362	.0000000005
.3982	.0000000419	.0000000005
.4518	.000000047	.0000000005
.4969	.000000051	.0000000005
.5496	.0000000543	.0000000005
.6002	.0000000575	.0000000005
.649	.0000000592	.0000000005
.6976	.0000000586	.0000000005
.7488	.0000000564	.0000000005
.7983	.0000000516	.0000000005
.8511	.0000000445	.0000000005
.8983	.0000000361	.0000000005
.9514	.000000019	.0000000005

System: 1,2-dichloropropane + methyl butanoate; phases: Liquid
Fixed: Temperature, K = 298.15
Fixed: Pressure, kPa = 101
Property: Excess molar enthalpy (molar enthalpy of mixing), kJ/mol (Liquid); method: isothermal calorimetry
Mole fraction of 1,2-dichloropropane	Excess molar enthalpy (molar enthalpy of mixing), kJ/mol	uncertainty
.045	-.0587	.001
.091	-.1078	.001
.159	-.1738	.001
.203	-.2151	.001
.247	-.2498	.001
.29	-.2788	.001
.354	-.3124	.001
.396	-.3261	.001
.458	-.3383	.001
.499	-.3371	.001
.558	-.3271	.001
.598	-.313	.001
.656	-.2918	.001
.694	-.2725	.001
.751	-.2375	.001
.806	-.1927	.001
.842	-.1619	.001
.896	-.1126	.001
.949	-.0579	.001
