Measured thermophysical data. Azeotrope breaking for the system ethyl tert-butyl ether (ETBE) + ethanol at 313.15 K and excess properties at 298.15 K for mixtures of ETBE and ethanol with phosphonium-based ionic liquids
Source: Fluid Phase Equilib., 2013, 10.1016/j.fluid.2013.01.022
Compound 1: 2-ethoxy-2-methylpropane, C6H14O, purity 99.9%
Compound 2: ethanol, C2H6O, purity 99.9%
Compound 3: trihexyl(tetradecyl)phosphonium chloride, C32H68ClP, purity 99%
Compound 4: trihexyltetradecylphosphonium bis(2,4,4-trimethylpentyl)phosphinate, C48H102O2P2, purity 99%

System: 2-ethoxy-2-methylpropane; phases: Liquid
Fixed: Pressure, kPa = 101.325
Property: Mass density, kg/m3 (Liquid); method: Vibrating tube method
Temperature, K	Mass density, kg/m3	uncertainty
298.15	735.85	.005

System: 2-ethoxy-2-methylpropane; phases: Liquid
Fixed: Pressure, kPa = 101.325
Property: Refractive index (Na D-line) (Liquid); method: Standard Abbe refractometry
Temperature, K	Refractive index (Na D-line)	uncertainty
298.15	1.37358	.00005

System: ethanol; phases: Liquid
Fixed: Pressure, kPa = 101.325
Property: Mass density, kg/m3 (Liquid); method: Vibrating tube method
Temperature, K	Mass density, kg/m3	uncertainty
298.15	785.22	.005

System: ethanol; phases: Liquid
Fixed: Pressure, kPa = 101.325
Property: Refractive index (Na D-line) (Liquid); method: Standard Abbe refractometry
Temperature, K	Refractive index (Na D-line)	uncertainty
298.15	1.35925	.00005

System: trihexyl(tetradecyl)phosphonium chloride; phases: Liquid
Fixed: Pressure, kPa = 101.325
Property: Mass density, kg/m3 (Liquid); method: Vibrating tube method
Temperature, K	Mass density, kg/m3	uncertainty
298.15	891.82	.005

System: trihexyl(tetradecyl)phosphonium chloride; phases: Liquid
Fixed: Pressure, kPa = 101.325
Property: Refractive index (Na D-line) (Liquid); method: Standard Abbe refractometry
Temperature, K	Refractive index (Na D-line)	uncertainty
298.15	1.48175	.00005

System: trihexyltetradecylphosphonium bis(2,4,4-trimethylpentyl)phosphinate; phases: Liquid
Fixed: Pressure, kPa = 101.325
Property: Mass density, kg/m3 (Liquid); method: Vibrating tube method
Temperature, K	Mass density, kg/m3	uncertainty
298.15	886.43	.005

System: trihexyltetradecylphosphonium bis(2,4,4-trimethylpentyl)phosphinate; phases: Liquid
Fixed: Pressure, kPa = 101.325
Property: Refractive index (Na D-line) (Liquid); method: Standard Abbe refractometry
Temperature, K	Refractive index (Na D-line)	uncertainty
298.15	1.47125	.00005

System: ethanol + 2-ethoxy-2-methylpropane + trihexyl(tetradecyl)phosphonium chloride; phases: Liquid, Gas
Property: Mole fraction of trihexyl(tetradecyl)phosphonium chloride (Liquid); method: Chromatography
Property: Mole fraction of 2-ethoxy-2-methylpropane (Gas); method: Chromatography
Property: Mole fraction of ethanol (Gas); method: Chromatography
Temperature, K	Pressure, kPa	Mole fraction of 2-ethoxy-2-methylpropane	Mole fraction of trihexyl(tetradecyl)phosphonium chloride	uncertainty	Mole fraction of 2-ethoxy-2-methylpropane	uncertainty	Mole fraction of ethanol	uncertainty
313.15	13.7	.0366	.05	.0001	.1354	.0001	.8646	.0001
313.15	22.62	.422	.0501	.0001	.6332	.0001	.3668	.0001
313.15	23.34	.4666	.0499	.0001	.6598	.0001	.3402	.0001
313.15	23.81	.5057	.05	.0001	.6938	.0001	.3062	.0001
313.15	24.26	.5482	.0499	.0001	.7218	.0001	.2782	.0001
313.15	24.69	.5957	.05	.0001	.7465	.0001	.2535	.0001
313.15	24.99	.6346	.0498	.0001	.7637	.0001	.2363	.0001
313.15	25.22	.6809	.05	.0001	.7933	.0001	.2067	.0001
313.15	25.6	.7203	.0498	.0001	.8186	.0001	.1814	.0001
313.15	25.62	.7668	.05	.0001	.8476	.0001	.1524	.0001
313.15	25.82	.8005	.0496	.0001	.8787	.0001	.1213	.0001
313.15	15.14	.0788	.0499	.0001	.2406	.0001	.7594	.0001
313.15	25.86	.8513	.05	.0001	.9212	.0001	.0788	.0001
313.15	25.91	.8937	.0499	.0001	.9508	.0001	.0492	.0001
313.15	9.35	.0314	.0997	.0001	.1463	.0001	.8537	.0001
313.15	10.03	.0706	.1	.0001	.2544	.0001	.7456	.0001
313.15	10.93	.1146	.1	.0001	.3611	.0001	.6389	.0001
313.15	11.75	.1545	.0999	.0001	.4288	.0001	.5712	.0001
313.15	12.42	.1929	.1	.0001	.4836	.0001	.5164	.0001
313.15	12.97	.2277	.1	.0001	.5289	.0001	.4711	.0001
313.15	13.86	.2746	.0998	.0001	.5712	.0001	.4288	.0001
313.15	14.45	.3164	.0997	.0001	.6159	.0001	.3841	.0001
313.15	16.49	.1222	.0498	.0001	.3234	.0001	.6766	.0001
313.15	15.03	.3569	.0997	.0001	.6486	.0001	.3514	.0001
313.15	15.58	.3993	.0998	.0001	.6844	.0001	.3156	.0001
313.15	16.1	.4392	.0999	.0001	.7133	.0001	.2867	.0001
313.15	16.49	.4797	.1	.0001	.7447	.0001	.2553	.0001
313.15	16.98	.5209	.0999	.0001	.7731	.0001	.2269	.0001
313.15	17.36	.5632	.1002	.0001	.8016	.0001	.1984	.0001
313.15	17.84	.6044	.0999	.0001	.8303	.0001	.1697	.0001
313.15	18.06	.6431	.1001	.0001	.8609	.0001	.1391	.0001
313.15	18.37	.6845	.1002	.0001	.8895	.0001	.1105	.0001
313.15	18.68	.7301	.1003	.0001	.9162	.0001	.0838	.0001
313.15	17.64	.1653	.0499	.0001	.3971	.0001	.6029	.0001
313.15	19.05	.7677	.0998	.0001	.9392	.0001	.0608	.0001
313.15	19.17	.8118	.1004	.0001	.9557	.0001	.0443	.0001
313.15	19.32	.8548	.1	.0001	.9756	.0001	.0244	.0001
313.15	18.59	.2064	.0502	.0001	.4463	.0001	.5537	.0001
313.15	19.67	.2515	.05	.0001	.5005	.0001	.4995	.0001
313.15	20.51	.2936	.0501	.0001	.5318	.0001	.4682	.0001
313.15	21.37	.3363	.0499	.0001	.5603	.0001	.4397	.0001
313.15	22.05	.3776	.05	.0001	.6037	.0001	.3963	.0001

System: ethanol + 2-ethoxy-2-methylpropane + trihexyltetradecylphosphonium bis(2,4,4-trimethylpentyl)phosphinate; phases: Liquid, Gas
Property: Mole fraction of trihexyltetradecylphosphonium bis(2,4,4-trimethylpentyl)phosphinate (Liquid); method: Chromatography
Property: Mole fraction of 2-ethoxy-2-methylpropane (Gas); method: Chromatography
Property: Mole fraction of ethanol (Gas); method: Chromatography
Temperature, K	Pressure, kPa	Mole fraction of 2-ethoxy-2-methylpropane	Mole fraction of trihexyltetradecylphosphonium bis(2,4,4-trimethylpentyl)phosphinate	uncertainty	Mole fraction of 2-ethoxy-2-methylpropane	uncertainty	Mole fraction of ethanol	uncertainty
313.15	13.63	.0413	.0499	.0001	.1645	.0001	.8355	.0001
313.15	23.26	.4132	.0501	.0001	.7004	.0001	.2996	.0001
313.15	23.85	.4525	.0501	.0001	.727	.0001	.273	.0001
313.15	24.51	.4994	.0499	.0001	.7562	.0001	.2438	.0001
313.15	24.95	.5381	.05	.0001	.7791	.0001	.2209	.0001
313.15	25.48	.5865	.0498	.0001	.8063	.0001	.1937	.0001
313.15	25.73	.6215	.0501	.0001	.8258	.0001	.1742	.0001
313.15	26.11	.6728	.0502	.0001	.8529	.0001	.1471	.0001
313.15	26.55	.7485	.0501	.0001	.8923	.0001	.1077	.0001
313.15	26.75	.7887	.0499	.0001	.9126	.0001	.0874	.0001
313.15	26.84	.8331	.0501	.0001	.9364	.0001	.0636	.0001
313.15	15.05	.0791	.0498	.0001	.2747	.0001	.7253	.0001
313.15	26.95	.8795	.05	.0001	.9608	.0001	.0392	.0001
313.15	8.9	.0315	.1	.0001	.1342	.0001	.8658	.0001
313.15	9.89	.0691	.0999	.0001	.2578	.0001	.7422	.0001
313.15	10.92	.1116	.1001	.0001	.3656	.0001	.6344	.0001
313.15	11.78	.1488	.1002	.0001	.4407	.0001	.5593	.0001
313.15	12.64	.1878	.1001	.0001	.5058	.0001	.4942	.0001
313.15	13.52	.2304	.1001	.0001	.5655	.0001	.4345	.0001
313.15	14.28	.2694	.1	.0001	.6118	.0001	.3882	.0001
313.15	15.01	.3099	.1	.0001	.6541	.0001	.3459	.0001
313.15	15.7	.3497	.0999	.0001	.6904	.0001	.3096	.0001
313.15	16.33	.1179	.0501	.0001	.3631	.0001	.6369	.0001
313.15	16.34	.3894	.0998	.0001	.7233	.0001	.2767	.0001
313.15	16.94	.4307	.0999	.0001	.7541	.0001	.2459	.0001
313.15	17.4	.4634	.0999	.0001	.7763	.0001	.2237	.0001
313.15	17.99	.5109	.1001	.0001	.8072	.0001	.1928	.0001
313.15	18.49	.5528	.1001	.0001	.832	.0001	.168	.0001
313.15	18.88	.5857	.1	.0001	.8501	.0001	.1499	.0001
313.15	19.32	.6278	.1	.0001	.8725	.0001	.1275	.0001
313.15	19.71	.6691	.1	.0001	.8938	.0001	.1062	.0001
313.15	20.08	.7091	.0999	.0001	.9127	.0001	.0873	.0001
313.15	20.35	.74	.0998	.0001	.9271	.0001	.0729	.0001
313.15	17.67	.1606	.05	.0001	.4398	.0001	.5602	.0001
313.15	20.7	.7904	.1	.0001	.951	.0001	.049	.0001
313.15	20.92	.8221	.0999	.0001	.9654	.0001	.0346	.0001
313.15	18.8	.2004	.05	.0001	.498	.0001	.502	.0001
313.15	19.88	.2422	.0499	.0001	.5495	.0001	.4505	.0001
313.15	20.95	.2889	.05	.0001	.5985	.0001	.4015	.0001
313.15	21.79	.331	.0501	.0001	.6369	.0001	.3631	.0001
313.15	22.59	.3724	.0499	.0001	.6701	.0001	.3299	.0001

System: 2-ethoxy-2-methylpropane + trihexyl(tetradecyl)phosphonium chloride; phases: Liquid
Fixed: Pressure, kPa = 101
Fixed: Temperature, K = 298.15
Property: Mass density, kg/m3 (Liquid); method: Vibrating tube method
Mole fraction of 2-ethoxy-2-methylpropane	Mass density, kg/m3	uncertainty
.0473	890.24	.005
.1037	888.11	.005
.1961	884.09	.005
.3076	878.3	.005
.3968	872.72	.005
.5075	864.28	.005
.5981	855.37	.005
.6992	841.62	.005
.7993	821.34	.005
.8987	790.03	.005
.9496	767.05	.005

System: 2-ethoxy-2-methylpropane + trihexyl(tetradecyl)phosphonium chloride; phases: Liquid
Fixed: Pressure, kPa = 101
Fixed: Temperature, K = 298.15
Property: Refractive index (Na D-line) (Liquid); method: Standard Abbe refractometry
Mole fraction of 2-ethoxy-2-methylpropane	Refractive index (Na D-line)	uncertainty
.0473	1.4804	.0001
.1037	1.4788	.0001
.1961	1.4762	.0001
.3076	1.4727	.0001
.3968	1.4688	.0001
.5075	1.4624	.0001
.5981	1.4562	.0001
.6992	1.4463	.0001
.7993	1.432	.0001
.8987	1.4104	.0001
.9496	1.3943	.0001

System: 2-ethoxy-2-methylpropane + trihexyltetradecylphosphonium bis(2,4,4-trimethylpentyl)phosphinate; phases: Liquid
Fixed: Pressure, kPa = 101
Fixed: Temperature, K = 298.15
Property: Mass density, kg/m3 (Liquid); method: Vibrating tube method
Mole fraction of 2-ethoxy-2-methylpropane	Mass density, kg/m3	uncertainty
.0425	886	.005
.0954	885.1	.005
.2026	882.46	.005
.2904	879.48	.005
.4013	874.66	.005
.4971	869.23	.005
.6023	861.11	.005
.7002	850.33	.005
.7999	832.96	.005
.8998	802.31	.005
.9503	776.41	.005

System: 2-ethoxy-2-methylpropane + trihexyltetradecylphosphonium bis(2,4,4-trimethylpentyl)phosphinate; phases: Liquid
Fixed: Pressure, kPa = 101
Fixed: Temperature, K = 298.15
Property: Refractive index (Na D-line) (Liquid); method: Standard Abbe refractometry
Mole fraction of 2-ethoxy-2-methylpropane	Refractive index (Na D-line)	uncertainty
.0425	1.4696	.0001
.0954	1.4691	.0001
.2026	1.4673	.0001
.2904	1.4653	.0001
.4013	1.4623	.0001
.4971	1.4587	.0001
.6023	1.4539	.0001
.7002	1.4464	.0001
.7999	1.435	.0001
.8998	1.4225	.0001
.9503	1.4154	.0001

System: ethanol + trihexyltetradecylphosphonium bis(2,4,4-trimethylpentyl)phosphinate; phases: Liquid
Fixed: Pressure, kPa = 101
Fixed: Temperature, K = 298.15
Property: Mass density, kg/m3 (Liquid); method: Vibrating tube method
Mole fraction of ethanol	Mass density, kg/m3	uncertainty
.051	886.25	.005
.1022	886.05	.005
.2136	885.54	.005
.305	885	.005
.4024	884.17	.005
.5019	882.93	.005
.5976	881.05	.005
.6989	877.74	.005
.7998	871	.005
.9003	854.34	.005
.9499	840.31	.005

System: ethanol + trihexyltetradecylphosphonium bis(2,4,4-trimethylpentyl)phosphinate; phases: Liquid
Fixed: Pressure, kPa = 101
Fixed: Temperature, K = 298.15
Property: Refractive index (Na D-line) (Liquid); method: Standard Abbe refractometry
Mole fraction of ethanol	Refractive index (Na D-line)	uncertainty
.051	1.47094	.0001
.1022	1.47076	.0001
.2136	1.46988	.0001
.305	1.46895	.0001
.4024	1.46802	.0001
.5019	1.46563	.0001
.5976	1.46367	.0001
.6989	1.459	.0001
.7998	1.45104	.0001
.9003	1.44331	.0001
.9499	1.43816	.0001
