Measured thermophysical data. Experimental study and thermodynamical modelling of thesolubilities of SO2, H2S and CO2in N-dodecylimidazole and 1,1 -[oxybis(2,1-ethanediyloxy-2,1-ethanediyl)]bis(imidazole): An evaluation of their potential application in the separation of acidic gases
Source: Fluid Phase Equilib., 2014, 10.1016/j.fluid.2014.06.026
Compound 1: 1-dodecyl-1H-imidazole, C15H28N2, purity 98%
Compound 2: 1,1'-[oxybis(2,1-ethanediyloxy-2,1-ethane-diyl)]bis-(1H-imidazole), C14H22N4O3, purity 98%
Compound 3: sulfur dioxide, O2S, purity 99.99%
Compound 4: carbon dioxide, CO2, purity 99.99%
Compound 5: hydrogen sulfide, H2S, purity 99.99%

System: 1-dodecyl-1H-imidazole; phases: Liquid
Fixed: Pressure, kPa = 101.325
Property: Mass density, kg/m3 (Liquid); method: Vibrating tube method
Temperature, K	Mass density, kg/m3	uncertainty
298.2	898.68	.05
303.2	895.23	.05
308.2	891.79	.05
313.2	888.35	.05
318.2	884.92	.05
323.2	881.49	.05
328.2	878.07	.05
333.2	874.64	.05
338.2	871.22	.05
343.2	867.81	.05
348.2	864.4	.05
353.2	860.98	.05

System: 1-dodecyl-1H-imidazole; phases: Liquid
Fixed: Pressure, kPa = 101.325
Property: Viscosity, Pa*s (Liquid); method: Cone and plate viscometry
Temperature, K	Viscosity, Pa*s	uncertainty
298.2	.024	.00000005
303.2	.0201	.00000005
308.2	.0159	.00000005
313.2	.0133	.00000005
318.2	.0111	.00000005
323.2	.00942	.00000005
328.2	.00806	.00000005
333.2	.00696	.00000005
338.2	.006	.00000005
343.2	.00533	.00000005
348.2	.0047	.00000005
353.2	.00416	.00000005

System: 1,1'-[oxybis(2,1-ethanediyloxy-2,1-ethane-diyl)]bis-(1H-imidazole); phases: Liquid
Fixed: Pressure, kPa = 101.325
Property: Mass density, kg/m3 (Liquid); method: Vibrating tube method
Temperature, K	Mass density, kg/m3	uncertainty
298.2	1172.67	.05
303.2	1168.77	.05
308.2	1164.87	.05
313.2	1161.05	.05
318.2	1157.29	.05
323.2	1153.51	.05
328.2	1149.74	.05
333.2	1145.96	.05
338.2	1142.19	.05
343.2	1138.43	.05
348.2	1134.66	.05
353.2	1130.91	.05

System: 1,1'-[oxybis(2,1-ethanediyloxy-2,1-ethane-diyl)]bis-(1H-imidazole); phases: Liquid
Fixed: Pressure, kPa = 101.325
Property: Viscosity, Pa*s (Liquid); method: Cone and plate viscometry
Temperature, K	Viscosity, Pa*s	uncertainty
298.2	.5356	.005356
303.2	.356	.00356
308.2	.2402	.002402
313.2	.1782	.001782
318.2	.1292	.001292
323.2	.0939	.000939
328.2	.0698	.000698
333.2	.0568	.000568
338.2	.0449	.000449
343.2	.0367	.000367
348.2	.0291	.000291
353.2	.0249	.000249

System: 1-dodecyl-1H-imidazole + sulfur dioxide; phases: Liquid, Gas
Property: Mole fraction of sulfur dioxide (Liquid); method: Phase equilibration
Temperature, K	Pressure, kPa	Mole fraction of sulfur dioxide	uncertainty
298.2	.6	.084	.002
298.2	2	.168	.002
298.2	3.8	.235	.002
298.2	6	.287	.002
298.2	10.6	.352	.002
298.2	16.4	.4	.002
298.2	23.8	.443	.002
298.2	33.3	.479	.002
298.2	44	.51	.002
298.2	56.5	.535	.002
298.2	71.4	.561	.002
298.2	84	.58	.002
298.2	94.5	.596	.002
298.2	104.9	.61	.002
313.2	2.2	.093	.002
313.2	5.1	.17	.002
313.2	9	.24	.002
313.2	13.1	.289	.002
313.2	18.4	.34	.002
313.2	25.4	.382	.002
313.2	32.9	.414	.002
313.2	41.2	.442	.002
313.2	51.4	.469	.002
313.2	60.4	.49	.002
313.2	69.8	.51	.002
313.2	80.5	.529	.002
313.2	90.4	.546	.002
313.2	104.8	.563	.002
323.2	2.2	.087	.002
323.2	6	.17	.002
323.2	10.5	.228	.002
323.2	15.7	.278	.002
323.2	22.3	.32	.002
323.2	30.3	.358	.002
323.2	40.5	.394	.002
323.2	49.7	.42	.002
323.2	58.4	.442	.002
323.2	69.6	.461	.002
323.2	81.1	.479	.002
323.2	92.4	.496	.002
323.2	104.1	.512	.002
333.2	2.9	.059	.002
333.2	5.7	.106	.002
333.2	9	.147	.002
333.2	13.1	.188	.002
333.2	17.4	.222	.002
333.2	22.2	.252	.002
333.2	26.5	.276	.002
333.2	31.2	.298	.002
333.2	36.2	.318	.002
333.2	41.6	.337	.002
333.2	47.6	.355	.002
333.2	54.6	.373	.002
333.2	60.7	.389	.002
333.2	68.5	.405	.002
333.2	75.5	.42	.002
333.2	86	.436	.002
333.2	96	.452	.002
333.2	105	.463	.002

System: sulfur dioxide + 1,1'-[oxybis(2,1-ethanediyloxy-2,1-ethane-diyl)]bis-(1H-imidazole); phases: Liquid, Gas
Property: Mole fraction of sulfur dioxide (Liquid); method: Phase equilibration
Temperature, K	Pressure, kPa	Mole fraction of sulfur dioxide	uncertainty
298.2	3	.341	.002
298.2	4.8	.413	.002
298.2	7.6	.477	.002
298.2	12.4	.537	.002
298.2	19.5	.585	.002
298.2	28.1	.625	.002
298.2	33.6	.641	.002
298.2	39.3	.655	.002
298.2	45.8	.67	.002
298.2	51.2	.682	.002
298.2	58.2	.695	.002
298.2	65.6	.707	.002
298.2	74.2	.72	.002
298.2	84	.733	.002
298.2	93.4	.744	.002
298.2	105.8	.756	.002
313.2	2.4	.247	.002
313.2	3.2	.298	.002
313.2	4.3	.349	.002
313.2	5.7	.392	.002
313.2	7.8	.432	.002
313.2	10.8	.472	.002
313.2	13.9	.501	.002
313.2	18.4	.532	.002
313.2	23.8	.561	.002
313.2	29.6	.586	.002
313.2	36.1	.607	.002
313.2	43.8	.627	.002
313.2	52.1	.645	.002
313.2	61.4	.662	.002
313.2	70.9	.677	.002
313.2	80.9	.689	.002
313.2	90.4	.7	.002
313.2	97.4	.707	.002
313.2	104.8	.716	.002
323.2	.9	.109	.002
323.2	3.4	.239	.002
323.2	7	.326	.002
323.2	10.8	.384	.002
323.2	15.4	.432	.002
323.2	21.4	.475	.002
323.2	28.7	.514	.002
323.2	37.2	.547	.002
323.2	44.6	.57	.002
323.2	53.9	.593	.002
323.2	63.9	.613	.002
323.2	74.2	.631	.002
323.2	83.6	.648	.002
323.2	95.3	.662	.002
323.2	109.4	.676	.002
333.2	4	.204	.002
333.2	7.5	.28	.002
333.2	13	.352	.002
333.2	18.3	.404	.002
333.2	26.9	.455	.002
333.2	36.5	.494	.002
333.2	43.5	.517	.002
333.2	49.8	.535	.002
333.2	57	.553	.002
333.2	68	.575	.002
333.2	76.1	.589	.002
333.2	84.3	.603	.002
333.2	92.7	.615	.002
333.2	106.8	.632	.002

System: 1-dodecyl-1H-imidazole + hydrogen sulfide; phases: Liquid, Gas
Property: Mole fraction of hydrogen sulfide (Liquid); method: Phase equilibration
Temperature, K	Pressure, kPa	Mole fraction of hydrogen sulfide	uncertainty
298.2	15.5	.0281	.0011
298.2	31	.0517	.0011
298.2	50.1	.0799	.0011
298.2	67.5	.1008	.0011
298.2	84.1	.122	.0011
298.2	100.6	.1437	.0011
298.2	123.9	.1732	.0011
298.2	139.4	.1907	.0011
298.2	155.3	.2084	.0011
298.2	172.5	.2264	.0011
298.2	188.4	.2419	.0011
298.2	204.8	.2575	.0011
313.2	15.8	.0218	.0011
313.2	31.8	.0406	.0011
313.2	48.6	.0588	.0011
313.2	65.1	.0763	.0011
313.2	83.8	.0966	.0011
313.2	100.1	.1131	.0011
313.2	115.8	.1286	.0011
313.2	135.7	.1466	.0011
313.2	151.3	.1612	.0011
313.2	166.2	.1762	.0011
313.2	182.3	.191	.0011
313.2	206	.2107	.0011
323.2	23	.023	.0011
323.2	40.9	.0404	.0011
323.2	61.6	.0593	.0011
323.2	78.5	.0734	.0011
323.2	95.6	.0875	.0011
323.2	117.4	.1051	.0011
323.2	136.6	.12	.0011
323.2	157.4	.1362	.0011
323.2	176.7	.1509	.0011
323.2	206.4	.1719	.0011
333.2	22.7	.0218	.0011
333.2	42.3	.0366	.0011
333.2	62.1	.0513	.0011
333.2	80.5	.0634	.0011
333.2	101.2	.0779	.0011
333.2	119.5	.0909	.0011
333.2	139.6	.1076	.0011
333.2	156.7	.1201	.0011
333.2	175.9	.1315	.0011
333.2	204.5	.1492	.0011

System: hydrogen sulfide + 1,1'-[oxybis(2,1-ethanediyloxy-2,1-ethane-diyl)]bis-(1H-imidazole); phases: Liquid, Gas
Property: Mole fraction of hydrogen sulfide (Liquid); method: Phase equilibration
Temperature, K	Pressure, kPa	Mole fraction of hydrogen sulfide	uncertainty
298.2	15.9	.0356	.0011
298.2	34.3	.0684	.0011
298.2	53.5	.0975	.0011
298.2	70.2	.1239	.0011
298.2	87.1	.1493	.0011
298.2	107.7	.18	.0011
298.2	126.2	.2025	.0011
298.2	145.9	.2255	.0011
298.2	166.3	.2468	.0011
298.2	186.8	.2687	.0011
298.2	204.7	.2865	.0011
313.2	17.4	.0258	.0011
313.2	37.8	.0508	.0011
313.2	55.5	.0695	.0011
313.2	75.4	.0936	.0011
313.2	95.2	.1181	.0011
313.2	118.2	.1401	.0011
313.2	139	.1585	.0011
313.2	157.1	.1746	.0011
313.2	175.9	.1905	.0011
313.2	190.7	.2032	.0011
313.2	205.7	.2154	.0011
323.2	17.9	.0189	.0011
323.2	38.6	.0376	.0011
323.2	58.9	.0556	.0011
323.2	76.8	.0715	.0011
323.2	97.4	.0896	.0011
323.2	120.6	.1085	.0011
323.2	139.9	.1233	.0011
323.2	160.3	.1392	.0011
323.2	179.5	.1532	.0011
323.2	204.1	.1698	.0011
333.2	20.5	.0173	.0011
333.2	40.3	.0327	.0011
333.2	59.8	.0513	.0011
333.2	81.5	.0664	.0011
333.2	101.2	.082	.0011
333.2	125	.0974	.0011
333.2	143.3	.1095	.0011
333.2	163.8	.122	.0011
333.2	184.5	.1346	.0011
333.2	205.4	.1468	.0011

System: carbon dioxide + 1-dodecyl-1H-imidazole; phases: Liquid, Gas
Property: Mole fraction of carbon dioxide (Liquid); method: Phase equilibration
Temperature, K	Pressure, kPa	Mole fraction of carbon dioxide	uncertainty
298.2	28.5	.0049	.0006
298.2	59.7	.0104	.0006
298.2	86.2	.0153	.0006
298.2	113.8	.0201	.0006
298.2	150.9	.0274	.0006
298.2	195	.0363	.0006
298.2	250.7	.0465	.0006
298.2	304.6	.057	.0006
298.2	366.8	.0689	.0006
298.2	416	.0788	.0006
298.2	468.4	.0879	.0006
298.2	511.5	.0966	.0006
313.2	23.5	.0037	.0006
313.2	57.3	.0083	.0006
313.2	92.7	.0128	.0006
313.2	123.5	.0166	.0006
313.2	161	.0213	.0006
313.2	210.5	.029	.0006
313.2	258.8	.0358	.0006
313.2	307.7	.0451	.0006
313.2	357.5	.0523	.0006
313.2	412.5	.0598	.0006
313.2	459.7	.0657	.0006
313.2	507.3	.0749	.0006
323.2	25.7	.0039	.0006
323.2	54	.007	.0006
323.2	79	.0102	.0006
323.2	109.9	.0138	.0006
323.2	149.2	.0185	.0006
323.2	193.9	.0239	.0006
323.2	246.9	.0295	.0006
323.2	296	.0358	.0006
323.2	350.1	.0432	.0006
323.2	401.9	.0497	.0006
323.2	454.9	.0567	.0006
323.2	504.8	.0627	.0006
333.2	26.4	.0022	.0006
333.2	54	.0052	.0006
333.2	102.1	.0103	.0006
333.2	155.4	.016	.0006
333.2	203.9	.0211	.0006
333.2	255.5	.0265	.0006
333.2	305.4	.0321	.0006
333.2	357.4	.0373	.0006
333.2	406.8	.0428	.0006
333.2	457.2	.0481	.0006
333.2	505.7	.0532	.0006

System: carbon dioxide + 1,1'-[oxybis(2,1-ethanediyloxy-2,1-ethane-diyl)]bis-(1H-imidazole); phases: Liquid, Gas
Property: Mole fraction of carbon dioxide (Liquid); method: Phase equilibration
Temperature, K	Pressure, kPa	Mole fraction of carbon dioxide	uncertainty
298.2	37.1	.007	.0006
298.2	76.6	.0115	.0006
298.2	108.2	.0158	.0006
298.2	161.2	.0226	.0006
298.2	207.1	.0297	.0006
298.2	252.8	.0386	.0006
298.2	304.2	.0449	.0006
298.2	364.2	.0534	.0006
298.2	420.8	.0599	.0006
298.2	461.1	.0651	.0006
298.2	507	.0702	.0006
313.2	25.6	.0042	.0006
313.2	57.2	.0071	.0006
313.2	93.8	.0134	.0006
313.2	151.1	.0197	.0006
313.2	207.1	.0256	.0006
313.2	261.3	.0316	.0006
313.2	312.2	.0373	.0006
313.2	364.1	.0431	.0006
313.2	409.7	.0485	.0006
313.2	459.6	.0543	.0006
313.2	566.9	.0671	.0006
323.2	25	.004	.0006
323.2	60.9	.0083	.0006
323.2	100.9	.0125	.0006
323.2	156.5	.0168	.0006
323.2	204.6	.0227	.0006
323.2	259.4	.0279	.0006
323.2	308.2	.0332	.0006
323.2	361.7	.0374	.0006
323.2	406.8	.0426	.0006
323.2	455.7	.048	.0006
323.2	508	.0539	.0006
333.2	25.6	.0024	.0006
333.2	57.2	.0068	.0006
333.2	106.6	.0115	.0006
333.2	154.1	.0164	.0006
333.2	219.7	.0216	.0006
333.2	256.4	.025	.0006
333.2	311.9	.0303	.0006
333.2	356.4	.0347	.0006
333.2	406.4	.0389	.0006
333.2	460.3	.0436	.0006
333.2	506.6	.0482	.0006
