Measured thermophysical data. Density, viscosity, vapour liquid equilibrium, excess molar enthalpy, and their correlations of the binary system [1-pentanol + R-(+)-limonene] over the complete concentration range, at different temperatures
Source: Fluid Phase Equilib., 2010, 10.1016/j.fluid.2010.03.001
Compound 1: 1-pentanol, C5H12O
Compound 2: (R)-1-methyl-4-(1-methylethenyl)cyclohexene, C10H16

System: 1-pentanol; phases: Liquid
Fixed: Pressure, kPa = 101.325
Property: Mass density, kg/m3 (Liquid); method: Vibrating tube method
Temperature, K	Mass density, kg/m3	uncertainty
293.15	814.7	.1
298.15	810.7	.1
303.15	807.2	.1
313.15	799.8	.1
323.15	792.2	.1
333.15	784.3	.1
343.15	776.3	.1
353.15	768	.1
363.15	759.5	.1
373.15	750.6	.1

System: 1-pentanol; phases: Liquid
Fixed: Pressure, kPa = 101.325
Property: Viscosity, Pa*s (Liquid); method: Concentric cylinders viscometry
Temperature, K	Viscosity, Pa*s	uncertainty
293.15	.00403	.000014105
298.15	.00348	.00001218
303.15	.00302	.00001057
313.15	.002315	.0000081025
323.15	.001801	.0000063035
333.15	.001425	.0000049875
343.15	.001146	.000004011
353.15	.000935	.0000032725
363.15	.000772	.000002702
373.15	.000647	.0000022645

System: 1-pentanol; phases: Liquid, Gas
Property: Vapor or sublimation pressure, kPa (Liquid); method: Ebulliometric method (Recirculating still)
Temperature, K	Vapor or sublimation pressure, kPa	uncertainty
328.15	2.3	.05
329.5	2.5	.05
333.15	3.1	.05
338.15	4.2	.05
341.2	5	.05
343.15	5.6	.05
348.75	7.5	.05
354.37	10	.05
362.63	15	.05
368.86	20	.05
378.2	30	.05
385.33	40	.05
391.03	50	.05
395.87	60	.05
400.1	70	.05
391.03	50	.05
395.87	60	.05
400.1	70	.05
403.86	80	.05
407.25	90	.05
408.9	95.1	.05

System: (R)-1-methyl-4-(1-methylethenyl)cyclohexene; phases: Liquid
Fixed: Pressure, kPa = 101.325
Property: Mass density, kg/m3 (Liquid); method: Vibrating tube method
Temperature, K	Mass density, kg/m3	uncertainty
298.15	837.3	.1
303.15	833.6	.1
313.15	825.8	.1
323.15	817.9	.1
333.15	809.9	.1
343.15	801.9	.1
353.15	793.6	.1
363.15	785.4	.1
373.15	777.1	.1

System: (R)-1-methyl-4-(1-methylethenyl)cyclohexene; phases: Liquid
Fixed: Pressure, kPa = 101.325
Property: Viscosity, Pa*s (Liquid); method: Concentric cylinders viscometry
Temperature, K	Viscosity, Pa*s	uncertainty
293.15	.000902	.000003157
298.15	.00089	.000003115
303.15	.000793	.0000027755
313.15	.000702	.000002457
323.15	.000628	.000002198
333.15	.000566	.000001981
343.15	.0005	.00000175
353.15	.000452	.000001582
363.15	.000413	.0000014455
373.15	.000382	.000001337

System: 1-pentanol + (R)-1-methyl-4-(1-methylethenyl)cyclohexene; phases: Liquid
Fixed: Pressure, kPa = 101
Property: Mass density, kg/m3 (Liquid); method: Vibrating tube method
Temperature, K	Mole fraction of 1-pentanol	Mass density, kg/m3	uncertainty
293.15	0	841.5	.1
293.15	.092	839.4	.1
293.15	.1644	837.8	.1
293.15	.2748	835.4	.1
293.15	.3592	833.5	.1
293.15	.4565	831.2	.1
293.15	.5542	828.8	.1
293.15	.6068	827.4	.1
293.15	.647	826.4	.1
293.15	.7365	823.8	.1
293.15	.8234	821.1	.1
293.15	.9105	818.1	.1
293.15	1	814.7	.1
303.15	0	833.6	.1
303.15	.092	831.4	.1
303.15	.1644	829.8	.1
303.15	.2748	827.4	.1
303.15	.3592	825.4	.1
303.15	.4565	823.2	.1
303.15	.5542	820.8	.1
303.15	.6068	819.5	.1
303.15	.647	818.4	.1
303.15	.7365	816	.1
303.15	.8234	813.4	.1
303.15	.9105	810.5	.1
303.15	1	807.2	.1
313.15	0	825.8	.1
313.15	.092	823.4	.1
313.15	.1644	821.8	.1
313.15	.2748	819.4	.1
313.15	.3592	817.4	.1
313.15	.4565	815.2	.1
313.15	.5542	812.9	.1
313.15	.6068	811.6	.1
313.15	.647	810.6	.1
313.15	.7365	808.2	.1
313.15	.8234	805.8	.1
313.15	.9105	803	.1
313.15	1	799.8	.1
323.15	0	817.9	.1
323.15	.092	815.4	.1
323.15	.1644	813.7	.1
323.15	.2748	811.3	.1
323.15	.3592	809.3	.1
323.15	.4565	807.1	.1
323.15	.5542	804.8	.1
323.15	.6068	803.5	.1
323.15	.647	802.5	.1
323.15	.7365	800.2	.1
323.15	.8234	797.9	.1
323.15	.9105	795.3	.1
323.15	1	792.2	.1
333.15	0	809.9	.1
333.15	.092	807.3	.1
333.15	.1644	805.5	.1
333.15	.2748	803	.1
333.15	.3592	801	.1
333.15	.4565	798.8	.1
333.15	.5542	796.5	.1
333.15	.6068	795.2	.1
333.15	.647	794.2	.1
333.15	.7365	792.2	.1
333.15	.8234	789.8	.1
333.15	.9105	787.3	.1
333.15	1	784.3	.1
343.15	0	801.9	.1
343.15	.092	799.2	.1
343.15	.1644	797.2	.1
343.15	.2748	794.6	.1
343.15	.3592	792.6	.1
343.15	.4565	790.4	.1
343.15	.5542	788.2	.1
343.15	.6068	787	.1
343.15	.647	786	.1
343.15	.7365	783.7	.1
343.15	.8234	781.5	.1
343.15	.9105	779.1	.1
343.15	1	776.3	.1
353.15	0	793.6	.1
353.15	.092	790.8	.1
353.15	.1644	788.9	.1
353.15	.2748	786.2	.1
353.15	.3592	784.2	.1
353.15	.4565	781.9	.1
353.15	.5542	779.5	.1
353.15	.6068	778.4	.1
353.15	.647	777.4	.1
353.15	.7365	775.2	.1
353.15	.8234	773.1	.1
353.15	.9105	770.6	.1
353.15	1	768	.1
363.15	0	785.4	.1
363.15	.092	782.5	.1
363.15	.1644	780.4	.1
363.15	.2748	777.7	.1
363.15	.3592	775.6	.1
363.15	.4565	773.2	.1
363.15	.5542	770.9	.1
363.15	.6068	769.6	.1
363.15	.647	768.6	.1
363.15	.7365	766.5	.1
363.15	.8234	764.4	.1
363.15	.9105	762	.1
363.15	1	759.5	.1
373.15	0	777.1	.1
373.15	.092	774.3	.1
373.15	.1644	771.9	.1
373.15	.2748	769	.1
373.15	.3592	766.9	.1
373.15	.4565	764.4	.1
373.15	.5542	762	.1
373.15	.6068	760.7	.1
373.15	.647	759.7	.1
373.15	.7365	757.7	.1
373.15	.8234	755.7	.1
373.15	.9105	753.1	.1
373.15	1	750.6	.1

System: 1-pentanol + (R)-1-methyl-4-(1-methylethenyl)cyclohexene; phases: Liquid
Fixed: Pressure, kPa = 101
Property: Viscosity, Pa*s (Liquid); method: Concentric cylinders viscometry
Temperature, K	Mole fraction of 1-pentanol	Viscosity, Pa*s	uncertainty
293.15	0	.000902	.000003157
293.15	.092	.000935	.0000032725
293.15	.1644	.000983	.0000034405
293.15	.2748	.001079	.0000037765
293.15	.3592	.001182	.000004137
293.15	.4565	.00134	.00000469
293.15	.5542	.001564	.000005474
293.15	.6068	.001717	.0000060095
293.15	.647	.001851	.0000064785
293.15	.7365	.002213	.0000077455
293.15	.8234	.00266	.00000931
293.15	.9105	.00326	.00001141
293.15	1	.00403	.000014105
303.15	0	.000793	.0000027755
303.15	.092	.000814	.000002849
303.15	.1644	.00085	.000002975
303.15	.2748	.000923	.0000032305
303.15	.3592	.001	.0000035
303.15	.4565	.001115	.0000039025
303.15	.5542	.001275	.0000044625
303.15	.6068	.001384	.000004844
303.15	.647	.001477	.0000051695
303.15	.7365	.00173	.000006055
303.15	.8234	.002055	.0000071925
303.15	.9105	.002473	.0000086555
303.15	1	.00302	.00001057
313.15	0	.000702	.000002457
313.15	.092	.000716	.000002506
313.15	.1644	.000743	.0000026005
313.15	.2748	.000799	.0000027965
313.15	.3592	.000854	.000002989
313.15	.4565	.000942	.000003297
313.15	.5542	.001057	.0000036995
313.15	.6068	.001137	.0000039795
313.15	.647	.001201	.0000042035
313.15	.7365	.001386	.000004851
313.15	.8234	.001617	.0000056595
313.15	.9105	.001915	.0000067025
313.15	1	.002315	.0000081025
323.15	0	.000628	.000002198
323.15	.092	.000635	.0000022225
323.15	.1644	.000655	.0000022925
323.15	.2748	.000699	.0000024465
323.15	.3592	.000737	.0000025795
323.15	.4565	.000805	.0000028175
323.15	.5542	.000891	.0000031185
323.15	.6068	.000949	.0000033215
323.15	.647	.000995	.0000034825
323.15	.7365	.001129	.0000039515
323.15	.8234	.001298	.000004543
323.15	.9105	.00151	.000005285
323.15	1	.001801	.0000063035
333.15	0	.000566	.000001981
333.15	.092	.000568	.000001988
333.15	.1644	.000582	.000002037
333.15	.2748	.000616	.000002156
333.15	.3592	.000644	.000002254
333.15	.4565	.000696	.000002436
333.15	.5542	.000761	.0000026635
333.15	.6068	.000803	.0000028105
333.15	.647	.000837	.0000029295
333.15	.7365	.000937	.0000032795
333.15	.8234	.00106	.00000371
333.15	.9105	.001219	.0000042665
333.15	1	.001425	.0000049875
343.15	0	.0005	.00000175
343.15	.092	.000511	.0000017885
343.15	.1644	.00052	.00000182
343.15	.2748	.000546	.000001911
343.15	.3592	.000567	.0000019845
343.15	.4565	.000608	.000002128
343.15	.5542	.000657	.0000022995
343.15	.6068	.000688	.000002408
343.15	.647	.000713	.0000024955
343.15	.7365	.000786	.000002751
343.15	.8234	.000878	.000003073
343.15	.9105	.000996	.000003486
343.15	1	.001146	.000004011
353.15	0	.000452	.000001582
353.15	.092	.000462	.000001617
353.15	.1644	.000468	.000001638
353.15	.2748	.000487	.0000017045
353.15	.3592	.000502	.000001757
353.15	.4565	.000534	.000001869
353.15	.5542	.000571	.0000019985
353.15	.6068	.000594	.000002079
353.15	.647	.000615	.0000021525
353.15	.7365	.000669	.0000023415
353.15	.8234	.000737	.0000025795
353.15	.9105	.000827	.0000028945
353.15	1	.000935	.0000032725
363.15	0	.000413	.0000014455
363.15	.092	.000421	.0000014735
363.15	.1644	.000424	.000001484
363.15	.2748	.000438	.000001533
363.15	.3592	.000448	.000001568
363.15	.4565	.000473	.0000016555
363.15	.5542	.000502	.000001757
363.15	.6068	.000519	.0000018165
363.15	.647	.000535	.0000018725
363.15	.7365	.000576	.000002016
363.15	.8234	.000627	.0000021945
363.15	.9105	.000691	.0000024185
363.15	1	.000772	.000002702
373.15	0	.000382	.000001337
373.15	.092	.000385	.0000013475
373.15	.1644	.000386	.000001351
373.15	.2748	.000395	.0000013825
373.15	.3592	.000402	.000001407
373.15	.4565	.000421	.0000014735
373.15	.5542	.000443	.0000015505
373.15	.6068	.000456	.000001596
373.15	.647	.000469	.0000016415
373.15	.7365	.000499	.0000017465
373.15	.8234	.000538	.000001883
373.15	.9105	.000584	.000002044
373.15	1	.000647	.0000022645

System: 1-pentanol + (R)-1-methyl-4-(1-methylethenyl)cyclohexene; phases: Liquid, Gas
Property: Vapor or sublimation pressure, kPa (Liquid); method: Ebulliometric method (Recirculating still)
Temperature, K	Mole fraction of 1-pentanol	Vapor or sublimation pressure, kPa	uncertainty
328.15	0	1.08	.1
328.15	.047	1.9	.1
328.15	.133	2.14	.1
328.15	.273	2.31	.1
328.15	.299	2.33	.1
328.15	.364	2.38	.1
328.15	.503	2.43	.1
328.15	.558	2.46	.1
328.15	.622	2.48	.1
328.15	.669	2.52	.1
328.15	.728	2.53	.1
328.15	.78	2.52	.1
328.15	.833	2.5	.1
328.15	.885	2.47	.1
328.15	.972	2.37	.1
328.15	.994	2.35	.1
328.15	1	2.3	.1
333.15	0	1.44	.1
333.15	.047	2.5	.1
333.15	.128	2.9	.1
333.15	.259	3.1	.1
333.15	.291	3.14	.1
333.15	.373	3.22	.1
333.15	.498	3.28	.1
333.15	.549	3.3	.1
333.15	.614	3.32	.1
333.15	.662	3.38	.1
333.15	.728	3.4	.1
333.15	.78	3.39	.1
333.15	.829	3.36	.1
333.15	.885	3.32	.1
333.15	.973	3.22	.1
333.15	.994	3.2	.1
333.15	1	3.13	.1
338.15	0	1.9	.1
338.15	.032	3.33	.1
338.15	.113	3.72	.1
338.15	.246	4.11	.1
338.15	.273	4.18	.1
338.15	.343	4.26	.1
338.15	.518	4.38	.1
338.15	.549	4.41	.1
338.15	.606	4.42	.1
338.15	.665	4.43	.1
338.15	.725	4.48	.1
338.15	.777	4.48	.1
338.15	.829	4.47	.1
338.15	.879	4.45	.1
338.15	.972	4.3	.1
338.15	.994	4.29	.1
338.15	1	4.19	.1
343.15	0	2.44	.1
343.15	.005	3.82	.1
343.15	.101	4.67	.1
343.15	.141	5.01	.1
343.15	.23	5.31	.1
343.15	.244	5.34	.1
343.15	.309	5.48	.1
343.15	.483	5.72	.1
343.15	.536	5.78	.1
343.15	.593	5.81	.1
343.15	.654	5.84	.1
343.15	.721	5.87	.1
343.15	.777	5.89	.1
343.15	.829	5.86	.1
343.15	.867	5.8	.1
343.15	.95	5.69	.1
343.15	.994	5.6	.1
343.15	1	5.56	.1

System: 1-pentanol + (R)-1-methyl-4-(1-methylethenyl)cyclohexene; phases: Gas, Liquid
Property: Mole fraction of 1-pentanol (Gas); method: Density calibration data
Temperature, K	Mole fraction of 1-pentanol	Mole fraction of 1-pentanol	uncertainty
328.15	0	0	.001
328.15	.047	.483	.001
328.15	.133	.553	.001
328.15	.273	.602	.001
328.15	.299	.613	.001
328.15	.364	.628	.001
328.15	.503	.669	.001
328.15	.558	.681	.001
328.15	.622	.696	.001
328.15	.669	.714	.001
328.15	.728	.739	.001
328.15	.78	.763	.001
328.15	.833	.794	.001
328.15	.885	.839	.001
328.15	.972	.912	.001
328.15	.994	.98	.001
328.15	1	1	.001
333.15	0	0	.001
333.15	.047	.483	.001
333.15	.128	.557	.001
333.15	.259	.609	.001
333.15	.291	.624	.001
333.15	.373	.643	.001
333.15	.498	.677	.001
333.15	.549	.692	.001
333.15	.614	.707	.001
333.15	.662	.725	.001
333.15	.728	.746	.001
333.15	.78	.77	.001
333.15	.829	.8	.001
333.15	.885	.845	.001
333.15	.973	.918	.001
333.15	.994	.978	.001
333.15	1	1	.001
338.15	0	0	.001
338.15	.032	.463	.001
338.15	.113	.561	.001
338.15	.246	.622	.001
338.15	.273	.634	.001
338.15	.343	.65	.001
338.15	.518	.679	.001
338.15	.549	.693	.001
338.15	.606	.718	.001
338.15	.665	.732	.001
338.15	.725	.753	.001
338.15	.777	.78	.001
338.15	.829	.81	.001
338.15	.879	.845	.001
338.15	.972	.924	.001
338.15	.994	.955	.001
338.15	1	1	.001
343.15	0	0	.001
343.15	.005	.355	.001
343.15	.101	.558	.001
343.15	.141	.593	.001
343.15	.23	.63	.001
343.15	.244	.638	.001
343.15	.309	.662	.001
343.15	.483	.696	.001
343.15	.536	.707	.001
343.15	.593	.725	.001
343.15	.654	.739	.001
343.15	.721	.767	.001
343.15	.777	.787	.001
343.15	.829	.817	.001
343.15	.867	.842	.001
343.15	.95	.924	.001
343.15	.994	.983	.001
343.15	1	1	.001

System: 1-pentanol + (R)-1-methyl-4-(1-methylethenyl)cyclohexene; phases: Liquid, Gas
Property: Azeotropic pressure, kPa (Liquid); method: By X=Y
Temperature, K	Azeotropic pressure, kPa	uncertainty
328.2	2.5	.1
333.2	3.4	.1
338.2	4.5	.1
343.2	5.9	.1

System: 1-pentanol + (R)-1-methyl-4-(1-methylethenyl)cyclohexene; phases: Liquid, Gas
Property: Azeotropic composition: mole fraction of 1-pentanol (Liquid); method: By X=Y
Temperature, K	Azeotropic composition: mole fraction of 1-pentanol	uncertainty
328.2	.755	.005
333.2	.775	.005
338.2	.795	.005
343.2	.805	.005

System: 1-pentanol + (R)-1-methyl-4-(1-methylethenyl)cyclohexene; phases: Liquid
Fixed: Pressure, kPa = 101
Fixed: Temperature, K = 303
Property: Excess molar enthalpy (molar enthalpy of mixing), kJ/mol (Liquid); method: Derive from enthalpy of mixing (adiabatic calorimetery method)
Mole fraction of 1-pentanol	Excess molar enthalpy (molar enthalpy of mixing), kJ/mol	uncertainty
0	0	0
.023	.234	.00936
.058	.456	.01824
.108	.656	.02624
.167	.651	.02604
.176	.684	.02736
.234	.782	.03128
.347	.842	.03368
.46	.858	.03432
.547	.815	.0326
.602	.722	.02888
.678	.639	.02556
.728	.532	.02128
.828	.439	.01756
.857	.346	.01384
.954	.184	.00736
.961	.1	.004
1	0	0
