Measured thermophysical data. Phase equilibria of (water + carboxylic acid + diethyl maleate) ternary liquid systems at 298.15 K
Source: Fluid Phase Equilib., 2011, 10.1016/j.fluid.2011.01.020
Compound 1: methanoic acid, CH2O2, purity 98%
Compound 2: ethanoic acid, C2H4O2, purity 99%
Compound 3: propanoic acid, C3H6O2, purity 99%
Compound 4: butanoic acid, C4H8O2, purity 99%
Compound 5: pentanoic acid, C5H10O2, purity 99%
Compound 6: diethyl maleate, C8H12O4, purity 95%
Compound 7: water, H2O

System: methanoic acid + diethyl maleate + water; phases: Liquid mixture 1, Liquid mixture 2
Fixed: Pressure, kPa = 101
Fixed: Temperature, K = 298.15
Property: Mole fraction of diethyl maleate (Liquid mixture 1); method: Chromatography
Mole fraction of water	Mole fraction of diethyl maleate	uncertainty
.9984	.0016	.0002
.9618	.0023	.0002
.9418	.0025	.0002
.9168	.0033	.0002
.8856	.0045	.0002
.8568	.0069	.0002
.7793	.0198	.0002
.7575	.0269	.0002
.7291	.0382	.0002
.6294	.1141	.0002
.6754	.0757	.0002
.3223	.5114	.0002
.3811	.4256	.0002
.4602	.3072	.0002
.5446	.1957	.0002
.2538	.6287	.0002
.1699	.7885	.0002
.133	.867	.0002

System: methanoic acid + diethyl maleate + water; phases: Liquid mixture 2, Liquid mixture 1
Fixed: Temperature, K = 298.15
Fixed: Pressure, kPa = 101
Property: Mole fraction of water (Liquid mixture 2); method: Chromatography
Property: Mole fraction of water (Liquid mixture 1); method: Chromatography
Property: Mole fraction of diethyl maleate (Liquid mixture 1); method: Chromatography
Mole fraction of diethyl maleate	Mole fraction of water	uncertainty	Mole fraction of water	uncertainty	Mole fraction of diethyl maleate	uncertainty
.74	.1969	.0002	.9622	.0002	.0024	.0002
.5763	.2898	.0002	.9225	.0002	.0032	.0002
.4695	.3478	.0002	.8782	.0002	.0051	.0002
.3615	.4195	.0002	.8438	.0002	.0078	.0002
.2509	.4983	.0002	.7927	.0002	.016	.0002

System: ethanoic acid + diethyl maleate + water; phases: Liquid mixture 1, Liquid mixture 2
Fixed: Pressure, kPa = 101
Fixed: Temperature, K = 298.15
Property: Mole fraction of diethyl maleate (Liquid mixture 1); method: Chromatography
Mole fraction of water	Mole fraction of diethyl maleate	uncertainty
.9984	.0016	.0002
.9815	.002	.0002
.9416	.0035	.0002
.8958	.0081	.0002
.841	.0197	.0002
.7892	.0426	.0002
.7321	.0753	.0002
.6756	.1089	.0002
.2522	.6396	.0002
.3857	.4126	.0002
.5129	.2467	.0002
.6213	.1482	.0002
.3188	.5287	.0002
.2144	.7205	.0002
.133	.867	.0002

System: ethanoic acid + diethyl maleate + water; phases: Liquid mixture 2, Liquid mixture 1
Fixed: Temperature, K = 298.15
Fixed: Pressure, kPa = 101
Property: Mole fraction of water (Liquid mixture 2); method: Chromatography
Property: Mole fraction of water (Liquid mixture 1); method: Chromatography
Property: Mole fraction of diethyl maleate (Liquid mixture 1); method: Chromatography
Mole fraction of diethyl maleate	Mole fraction of water	uncertainty	Mole fraction of water	uncertainty	Mole fraction of diethyl maleate	uncertainty
.7085	.2164	.0002	.9686	.0002	.0021	.0002
.6065	.2725	.0002	.9444	.0002	.0033	.0002
.4757	.3428	.0002	.9163	.0002	.0055	.0002
.3601	.4161	.0002	.8832	.0002	.0103	.0002
.2574	.501	.0002	.8411	.0002	.0203	.0002

System: propanoic acid + diethyl maleate + water; phases: Liquid mixture 1, Liquid mixture 2
Fixed: Pressure, kPa = 101
Fixed: Temperature, K = 298.15
Property: Mole fraction of diethyl maleate (Liquid mixture 1); method: Chromatography
Mole fraction of water	Mole fraction of diethyl maleate	uncertainty
.9984	.0016	.0002
.9914	.0018	.0002
.9575	.0034	.0002
.92	.0076	.0002
.8642	.0214	.0002
.7962	.0453	.0002
.7037	.086	.0002
.2541	.6614	.0002
.3432	.4863	.0002
.4538	.3102	.0002
.5296	.2136	.0002
.624	.1336	.0002
.3078	.5664	.0002
.2149	.7283	.0002
.133	.867	.0002

System: propanoic acid + diethyl maleate + water; phases: Liquid mixture 2, Liquid mixture 1
Fixed: Temperature, K = 298.15
Fixed: Pressure, kPa = 101
Property: Mole fraction of diethyl maleate (Liquid mixture 2); method: Chromatography
Property: Mole fraction of water (Liquid mixture 1); method: Chromatography
Property: Mole fraction of diethyl maleate (Liquid mixture 1); method: Chromatography
Mole fraction of water	Mole fraction of diethyl maleate	uncertainty	Mole fraction of water	uncertainty	Mole fraction of diethyl maleate	uncertainty
.2723	.6263	.0002	.9863	.0002	.0016	.0002
.3653	.4475	.0002	.9747	.0002	.002	.0002
.4362	.3312	.0002	.9614	.0002	.0028	.0002
.5218	.2218	.0002	.9456	.0002	.0042	.0002
.6204	.1366	.0002	.9229	.0002	.0075	.0002

System: butanoic acid + diethyl maleate + water; phases: Liquid mixture 1, Liquid mixture 2
Fixed: Pressure, kPa = 101
Fixed: Temperature, K = 298.15
Property: Mole fraction of diethyl maleate (Liquid mixture 1); method: Chromatography
Mole fraction of water	Mole fraction of diethyl maleate	uncertainty
.9984	.0016	.0002
.9872	.0018	.0002
.9481	.0027	.0002
.9035	.0037	.0002
.8542	.0068	.0002
.7974	.0124	.0002
.7024	.0344	.0002
.5459	.1324	.0002
.2208	.7136	.0002
.3168	.514	.0002
.3837	.3815	.0002
.4435	.2797	.0002
.4868	.2065	.0002
.5363	.1458	.0002
.5962	.0918	.0002
.133	.867	.0002

System: butanoic acid + diethyl maleate + water; phases: Liquid mixture 2, Liquid mixture 1
Fixed: Temperature, K = 298.15
Fixed: Pressure, kPa = 101
Property: Mole fraction of diethyl maleate (Liquid mixture 2); method: Chromatography
Property: Mole fraction of water (Liquid mixture 1); method: Chromatography
Property: Mole fraction of diethyl maleate (Liquid mixture 1); method: Chromatography
Mole fraction of water	Mole fraction of diethyl maleate	uncertainty	Mole fraction of water	uncertainty	Mole fraction of diethyl maleate	uncertainty
.2677	.6059	.0002	.9935	.0002	.0017	.0002
.3808	.3875	.0002	.9883	.0002	.002	.0002
.4496	.2679	.0002	.9846	.0002	.002	.0002
.4915	.2031	.0002	.9817	.0002	.002	.0002
.5442	.1347	.0002	.9773	.0002	.0021	.0002
.5955	.0908	.0002	.9746	.0002	.0022	.0002
.6622	.0509	.0002	.9716	.0002	.0023	.0002

System: pentanoic acid + diethyl maleate + water; phases: Liquid mixture 1, Liquid mixture 2
Fixed: Pressure, kPa = 101
Fixed: Temperature, K = 298.15
Property: Mole fraction of diethyl maleate (Liquid mixture 1); method: Chromatography
Mole fraction of water	Mole fraction of diethyl maleate	uncertainty
.9984	.0016	.0002
.926	.0021	.0002
.8146	.0029	.0002
.6978	.0038	.0002
.5121	.0168	.0002
.4476	.0695	.0002
.4357	.1113	.0002
.4228	.1526	.0002
.4151	.206	.0002
.3988	.2701	.0002
.3694	.3527	.0002
.334	.4475	.0002
.2907	.5564	.0002
.1933	.755	.0002
.133	.867	.0002

System: pentanoic acid + diethyl maleate + water; phases: Liquid mixture 2, Liquid mixture 1
Fixed: Temperature, K = 298.15
Fixed: Pressure, kPa = 101
Property: Mole fraction of water (Liquid mixture 2); method: Chromatography
Property: Mole fraction of water (Liquid mixture 1); method: Chromatography
Property: Mole fraction of diethyl maleate (Liquid mixture 1); method: Chromatography
Mole fraction of diethyl maleate	Mole fraction of water	uncertainty	Mole fraction of water	uncertainty	Mole fraction of diethyl maleate	uncertainty
.5774	.2796	.0002	.9961	.0002	.0015	.0002
.3615	.3656	.0002	.995	.0002	.0015	.0002
.2407	.4073	.0002	.9942	.0002	.0016	.0002
.2036	.4145	.0002	.9932	.0002	.0017	.0002
.1206	.4327	.0002	.9925	.0002	.0017	.0002
.0873	.4421	.0002	.992	.0002	.0018	.0002
.0585	.4528	.0002	.9899	.0002	.0018	.0002
