Measured thermophysical data. Ternary liquid-liquid equilibria and binary excess and deviation properties at constant temperature for mixtures of dimethyl carbonate, anisole, methanol, phenol and water
Source: Fluid Phase Equilib., 2014, 10.1016/j.fluid.2014.07.004
Compound 1: anisol, C7H8O, purity 99.9%
Compound 2: dimethyl carbonate, C3H6O3, purity 99.9%
Compound 3: methanol, CH4O, purity 99.9%
Compound 4: phenol, C6H6O, purity 99.9%
Compound 5: water, H2O, purity 99.9%

System: anisol; phases: Liquid
Fixed: Pressure, kPa = 101.325
Property: Mass density, kg/m3 (Liquid); method: Vibrating tube method
Temperature, K	Mass density, kg/m3	uncertainty
298.15	989.42	.01

System: dimethyl carbonate; phases: Liquid
Fixed: Pressure, kPa = 101.325
Property: Mass density, kg/m3 (Liquid); method: Vibrating tube method
Temperature, K	Mass density, kg/m3	uncertainty
298.15	1063.26	.01

System: methanol; phases: Liquid
Fixed: Pressure, kPa = 101.325
Property: Mass density, kg/m3 (Liquid); method: Vibrating tube method
Temperature, K	Mass density, kg/m3	uncertainty
298.15	786.59	.01

System: phenol; phases: Liquid
Fixed: Pressure, kPa = 101.325
Property: Mass density, kg/m3 (Liquid); method: Vibrating tube method
Temperature, K	Mass density, kg/m3	uncertainty
298.15	1058.51	.01

System: anisol + dimethyl carbonate + water; phases: Liquid mixture 2, Liquid mixture 1
Property: Mole fraction of water (Liquid mixture 2); method: Chromatography
Property: Mole fraction of dimethyl carbonate (Liquid mixture 1); method: Chromatography
Property: Mole fraction of water (Liquid mixture 1); method: Chromatography
Temperature, K	Pressure, kPa	Mole fraction of dimethyl carbonate	Mole fraction of water	uncertainty	Mole fraction of dimethyl carbonate	uncertainty	Mole fraction of water	uncertainty
313.15	101.325	0	.0019	.0001	0	.0001	.9892	.0001
313.15	101.325	.7022	.0256	.0001	.1254	.0001	.8746	.0001
313.15	101.325	.8417	.035	.0001	.131	.0001	.869	.0001
313.15	101.325	.9626	.0374	.0001	.1414	.0001	.8586	.0001
313.15	101.325	.0839	.0029	.0001	.0579	.0001	.9405	.0001
313.15	101.325	.1543	.0044	.0001	.0702	.0001	.9282	.0001
313.15	101.325	.2085	.0062	.0001	.0806	.0001	.9169	.0001
313.15	101.325	.3283	.0098	.0001	.0923	.0001	.9077	.0001
313.15	101.325	.4594	.0131	.0001	.1116	.0001	.8884	.0001
313.15	101.325	.6077	.0207	.0001	.1232	.0001	.8768	.0001

System: methanol + anisol + water; phases: Liquid mixture 1, Liquid mixture 2
Property: Mole fraction of water (Liquid mixture 1); method: Chromatography
Property: Mole fraction of methanol (Liquid mixture 2); method: Chromatography
Property: Mole fraction of water (Liquid mixture 2); method: Chromatography
Temperature, K	Pressure, kPa	Mole fraction of methanol	Mole fraction of water	uncertainty	Mole fraction of methanol	uncertainty	Mole fraction of water	uncertainty
308.15	101.325	0	.9892	.0001	0	.0001	.0019	.0001
308.15	101.325	.1652	.8252	.0001	.006	.0001	.0016	.0001
308.15	101.325	.2659	.7242	.0001	.0085	.0001	.0018	.0001
308.15	101.325	.3588	.6256	.0001	.0053	.0001	.0011	.0001
308.15	101.325	.4287	.55	.0001	.0074	.0001	.0019	.0001
308.15	101.325	.543	.4301	.0001	.0095	.0001	.0008	.0001
308.15	101.325	.6685	.298	.0001	.0202	.0001	.0019	.0001
308.15	101.325	.7358	.2168	.0001	.0283	.0001	.0027	.0001
308.15	101.325	.7727	.1742	.0001	.0454	.0001	.0044	.0001
308.15	101.325	.8377	.09	.0001	.0652	.0001	0	.0001
308.15	101.325	.8729	.0142	.0001	.0892	.0001	0	.0001

System: methanol + phenol + water; phases: Liquid mixture 2, Liquid mixture 1
Property: Mole fraction of water (Liquid mixture 2); method: Chromatography
Property: Mole fraction of water (Liquid mixture 1); method: Chromatography
Property: Mole fraction of methanol (Liquid mixture 1); method: Chromatography
Temperature, K	Pressure, kPa	Mole fraction of methanol	Mole fraction of water	uncertainty	Mole fraction of water	uncertainty	Mole fraction of methanol	uncertainty
328.15	101.325	0	.1255	.0001	.67	.0001	0	.0001
328.15	101.325	.0247	.1311	.0001	.6043	.0001	.0513	.0001
328.15	101.325	.0397	.135	.0001	.5675	.0001	.0685	.0001
328.15	101.325	.0508	.1429	.0001	.5334	.0001	.0872	.0001
328.15	101.325	.0601	.145	.0001	.5014	.0001	.0992	.0001
328.15	101.325	.0799	.166	.0001	.44	.0001	.134	.0001
328.15	101.325	.1122	.1819	.0001	.369	.0001	.154	.0001

System: methanol + dimethyl carbonate; phases: Liquid
Fixed: Temperature, K = 298.15
Fixed: Pressure, kPa = 101
Property: Mass density, kg/m3 (Liquid); method: Vibrating tube method
Mole fraction of methanol	Mass density, kg/m3	uncertainty
.0496	1056.77	.01
.1	1049.84	.01
.1997	1034.4	.01
.3	1016.89	.01
.3999	997.15	.01
.5	974.61	.01
.5999	948.66	.01
.6999	918.36	.01
.7999	882.55	.01
.9	839.54	.01
.9499	814.64	.01

System: methanol + dimethyl carbonate; phases: Liquid
Fixed: Temperature, K = 298.15
Fixed: Pressure, kPa = 101
Property: Refractive index (Na D-line) (Liquid); method: Standard Abbe refractometry
Mole fraction of methanol	Refractive index (Na D-line)	uncertainty
.0496	1.3658	.00005
.1	1.365	.00005
.1997	1.3627	.00005
.3	1.3607	.00005
.3999	1.3578	.00005
.5	1.3543	.00005
.5999	1.3506	.00005
.6999	1.3463	.00005
.7999	1.341	.00005
.9	1.3346	.00005
.9499	1.331	.00005

System: methanol + anisol; phases: Liquid
Fixed: Temperature, K = 298.15
Fixed: Pressure, kPa = 101
Property: Mass density, kg/m3 (Liquid); method: Vibrating tube method
Mole fraction of methanol	Mass density, kg/m3	uncertainty
.0498	985.45	.01
.1003	981.36	.01
.2003	972.63	.01
.3001	962.6	.01
.4002	950.84	.01
.4997	936.67	.01
.5999	919.46	.01
.7001	898.19	.01
.8	871.05	.01
.8999	835.51	.01
.95	813.27	.01

System: methanol + anisol; phases: Liquid
Fixed: Temperature, K = 298.15
Fixed: Pressure, kPa = 101
Property: Refractive index (Na D-line) (Liquid); method: Standard Abbe refractometry
Mole fraction of methanol	Refractive index (Na D-line)	uncertainty
.0498	1.5105	.0001
.1003	1.5064	.0001
.2003	1.4974	.0001
.3001	1.4865	.0001
.4002	1.4749	.0001
.4997	1.4609	.0001
.5999	1.445	.0001
.7001	1.4238	.0001
.8	1.398	.00005
.8999	1.3658	.00005
.95	1.3488	.00005

System: anisol + dimethyl carbonate; phases: Liquid
Fixed: Temperature, K = 298.15
Fixed: Pressure, kPa = 101
Property: Mass density, kg/m3 (Liquid); method: Vibrating tube method
Mole fraction of anisol	Mass density, kg/m3	uncertainty
.0502	1058.1	.01
.0997	1053.35	.01
.1995	1044.2	.01
.2996	1035.64	.01
.3999	1027.62	.01
.4998	1020.13	.01
.5999	1013.15	.01
.6999	1006.64	.01
.8	1000.51	.01
.9003	994.65	.01
.9503	991.82	.01

System: anisol + dimethyl carbonate; phases: Liquid
Fixed: Temperature, K = 298.15
Fixed: Pressure, kPa = 101
Property: Refractive index (Na D-line) (Liquid); method: Standard Abbe refractometry
Mole fraction of anisol	Refractive index (Na D-line)	uncertainty
.0502	1.3759	.00005
.0997	1.3847	.00005
.1995	1.402	.0001
.2996	1.4178	.0001
.3999	1.4334	.0001
.4998	1.4485	.0001
.5999	1.4629	.0001
.6999	1.4766	.0001
.8	1.4898	.0001
.9003	1.5027	.0001
.9503	1.5087	.0001
