Measured thermophysical data. Using binary mixtures of dicationic ionic liquids for determination ofactivity coefficients at infinite dilution by gas-liquid chromatography
Source: Fluid Phase Equilib., 2013, 10.1016/j.fluid.2013.05.038
Compound 1: hexane, C6H14, purity 95%
Compound 2: octane, C8H18, purity 99%
Compound 3: decane, C10H22, purity 99.5%
Compound 4: dodecane, C12H26, purity 99.5%
Compound 5: tridecane, C13H28, purity 99.8%
Compound 6: cyclohexane, C6H12, purity 99%
Compound 7: benzene, C6H6, purity 99%
Compound 8: toluene, C7H8, purity 99.8%
Compound 9: o-xylene, C8H10, purity 99%
Compound 10: m-xylene, C8H10, purity 99%
Compound 11: p-xylene, C8H10, purity 99.9%
Compound 12: methanol, CH4O, purity 99%
Compound 13: ethanol, C2H6O, purity 99%
Compound 14: n-propanol, C3H8O, purity 99%
Compound 15: 1-pentanol, C5H12O, purity 99.5%
Compound 16: 2-propanol, C3H8O, purity 99.7%
Compound 17: cyclohexanol, C6H12O, purity 99%
Compound 18: butyraldehyde, C4H8O, purity 99%
Compound 19: octyl aldehyde, C8H16O, purity 99%
Compound 20: benzaldehyde, C7H6O, purity 99%
Compound 21: 2-pentanone, C5H10O, purity 99.8%
Compound 22: cyclopentanone, C5H8O, purity 99%
Compound 23: cyclohexanone, C6H10O, purity 99.5%
Compound 24: cycloheptanone, C7H12O, purity 99%
Compound 25: acetophenone, C8H8O, purity 98%
Compound 26: aniline, C6H7N, purity 99.5%
Compound 27: N-methylaniline, C7H9N, purity 98%
Compound 28: pyridine, C5H5N, purity 99.8%
Compound 29: 1,2-dichloroethane, C2H4Cl2, purity 99%
Compound 30: 1,4-dioxane, C4H8O2, purity 98%
Compound 31: acetonitrile, C2H3N, purity 99%
Compound 32: benzonitrile, C7H5N, purity 98%
Compound 33: ethyl acetate, C4H8O2, purity 99%
Compound 34: acetic acid, C2H4O2, purity 99%
Compound 35: propionic acid, C3H6O2, purity 99.5%
Compound 36: dimethylformamide, C3H7NO, purity 99.9%
Compound 37: 1-chlorooctane, C8H17Cl, purity 99%
Compound 38: 1-bromooctane, C8H17Br, purity 99%
Compound 39: nitrobenzene, C6H5NO2, purity 99%
Compound 40: 1,12-di(N-methylpyrrolidinium)dodecane bis(trifluoromethylsulfonyl)imide, C26H46F12N4O8S4, purity 98%
Compound 41: triethylamine, C6H15N, purity 98%
Compound 42: carbon tetrachloride, CCl4, purity 98%
Compound 43: heptane, C7H16, purity 98%
Compound 44: trichloroethylene, C2HCl3, purity 98%

System: 1,12-di(N-methylpyrrolidinium)dodecane bis(trifluoromethylsulfonyl)imide + heptane; phases: Liquid, Gas
Fixed: Mass fraction of heptane = 0
Property: (Relative) activity of heptane (Liquid); method: Chromatography
Temperature, K	(Relative) activity of heptane	uncertainty
313	4.764	.14292
323	5.649	.16947

System: 1,12-di(N-methylpyrrolidinium)dodecane bis(trifluoromethylsulfonyl)imide + octane; phases: Liquid, Gas
Fixed: Mass fraction of octane = 0
Property: (Relative) activity of octane (Liquid); method: Chromatography
Temperature, K	(Relative) activity of octane	uncertainty
313	6.667	.20001
323	9.181	.27543

System: 1,12-di(N-methylpyrrolidinium)dodecane bis(trifluoromethylsulfonyl)imide + cyclohexane; phases: Liquid, Gas
Fixed: Mass fraction of cyclohexane = 0
Property: (Relative) activity of cyclohexane (Liquid); method: Chromatography
Temperature, K	(Relative) activity of cyclohexane	uncertainty
313	2.216	.06648
323	2.49	.0747

System: 1,12-di(N-methylpyrrolidinium)dodecane bis(trifluoromethylsulfonyl)imide + benzene; phases: Liquid, Gas
Fixed: Mass fraction of benzene = 0
Property: (Relative) activity of benzene (Liquid); method: Chromatography
Temperature, K	(Relative) activity of benzene	uncertainty
313	.259	.00777
323	.31	.0093

System: 1,12-di(N-methylpyrrolidinium)dodecane bis(trifluoromethylsulfonyl)imide + toluene; phases: Liquid, Gas
Fixed: Mass fraction of toluene = 0
Property: (Relative) activity of toluene (Liquid); method: Chromatography
Temperature, K	(Relative) activity of toluene	uncertainty
313	.346	.01038
323	.417	.01251

System: 1,12-di(N-methylpyrrolidinium)dodecane bis(trifluoromethylsulfonyl)imide + methanol; phases: Liquid, Gas
Fixed: Mass fraction of methanol = 0
Property: (Relative) activity of methanol (Liquid); method: Chromatography
Temperature, K	(Relative) activity of methanol	uncertainty
313	.385	.01155
323	.445	.01335

System: 1,12-di(N-methylpyrrolidinium)dodecane bis(trifluoromethylsulfonyl)imide + ethanol; phases: Liquid, Gas
Fixed: Mass fraction of ethanol = 0
Property: (Relative) activity of ethanol (Liquid); method: Chromatography
Temperature, K	(Relative) activity of ethanol	uncertainty
313	.496	.01488
323	.537	.01611

System: 1,12-di(N-methylpyrrolidinium)dodecane bis(trifluoromethylsulfonyl)imide + n-propanol; phases: Liquid, Gas
Fixed: Mass fraction of n-propanol = 0
Property: (Relative) activity of n-propanol (Liquid); method: Chromatography
Temperature, K	(Relative) activity of n-propanol	uncertainty
313	.656	.01968
323	.647	.01941

System: 1,12-di(N-methylpyrrolidinium)dodecane bis(trifluoromethylsulfonyl)imide + carbon tetrachloride; phases: Liquid, Gas
Fixed: Mass fraction of carbon tetrachloride = 0
Property: (Relative) activity of carbon tetrachloride (Liquid); method: Chromatography
Temperature, K	(Relative) activity of carbon tetrachloride	uncertainty
313	.464	.01392
323	.656	.01968

System: 1,12-di(N-methylpyrrolidinium)dodecane bis(trifluoromethylsulfonyl)imide + 1,2-dichloroethane; phases: Liquid, Gas
Fixed: Mass fraction of 1,2-dichloroethane = 0
Property: (Relative) activity of 1,2-dichloroethane (Liquid); method: Chromatography
Temperature, K	(Relative) activity of 1,2-dichloroethane	uncertainty
313	.166	.00498
323	.246	.00738

System: 1,12-di(N-methylpyrrolidinium)dodecane bis(trifluoromethylsulfonyl)imide + trichloroethylene; phases: Liquid, Gas
Fixed: Mass fraction of trichloroethylene = 0
Property: (Relative) activity of trichloroethylene (Liquid); method: Chromatography
Temperature, K	(Relative) activity of trichloroethylene	uncertainty
313	.261	.00783
323	.3	.009

System: 1,12-di(N-methylpyrrolidinium)dodecane bis(trifluoromethylsulfonyl)imide + acetonitrile; phases: Liquid, Gas
Fixed: Mass fraction of acetonitrile = 0
Property: (Relative) activity of acetonitrile (Liquid); method: Chromatography
Temperature, K	(Relative) activity of acetonitrile	uncertainty
313	.156	.00468
323	.179	.00537
