Measured thermophysical data. Isobaric vapor-liquid equilibrium data of the binary systems of octane with p, o, m-xylene at 20 kPa
Source: Fluid Phase Equilib., 2013, 10.1016/j.fluid.2013.01.015
Compound 1: n-octane, C8H18, purity 99.12%
Compound 2: 1,4-xylene, C8H10, purity 99.08%
Compound 3: 1,2-xylene, C8H10, purity 99.11%
Compound 4: m-xylene, C8H10, purity 99.06%

System: n-octane; phases: Liquid
Fixed: Pressure, kPa = 101.325
Property: Mass density, kg/m3 (Liquid); method: Vibrating tube method
Temperature, K	Mass density, kg/m3	uncertainty
298.15	698.61	.05

System: n-octane; phases: Liquid
Fixed: Pressure, kPa = 101.325
Property: Refractive index (Na D-line) (Liquid); method: Standard Abbe refractometry
Temperature, K	Refractive index (Na D-line)	uncertainty
298.15	1.3951	

System: 1,4-xylene; phases: Liquid
Fixed: Pressure, kPa = 101.325
Property: Mass density, kg/m3 (Liquid); method: Vibrating tube method
Temperature, K	Mass density, kg/m3	uncertainty
298.15	856.71	.05

System: 1,4-xylene; phases: Liquid
Fixed: Pressure, kPa = 101.325
Property: Refractive index (Na D-line) (Liquid); method: Standard Abbe refractometry
Temperature, K	Refractive index (Na D-line)	uncertainty
298.15	1.4958	

System: 1,2-xylene; phases: Liquid
Fixed: Pressure, kPa = 101.325
Property: Mass density, kg/m3 (Liquid); method: Vibrating tube method
Temperature, K	Mass density, kg/m3	uncertainty
298.15	859.54	.05

System: 1,2-xylene; phases: Liquid
Fixed: Pressure, kPa = 101.325
Property: Refractive index (Na D-line) (Liquid); method: Standard Abbe refractometry
Temperature, K	Refractive index (Na D-line)	uncertainty
298.15	1.49466	

System: m-xylene; phases: Liquid
Fixed: Pressure, kPa = 101.325
Property: Mass density, kg/m3 (Liquid); method: Vibrating tube method
Temperature, K	Mass density, kg/m3	uncertainty
298.15	859.95	.05

System: m-xylene; phases: Liquid
Fixed: Pressure, kPa = 101.325
Property: Refractive index (Na D-line) (Liquid); method: Standard Abbe refractometry
Temperature, K	Refractive index (Na D-line)	uncertainty
298.15	1.49464	

System: 1,4-xylene + n-octane; phases: Gas, Liquid
Property: Mole fraction of n-octane (Gas); method: Chromatography
Mole fraction of n-octane	Pressure, kPa	Mole fraction of n-octane	uncertainty
0	20	0	.001
.042	20	.078	.001
.116	20	.191	.001
.191	20	.287	.001
.259	20	.364	.001
.322	20	.428	.001
.402	20	.505	.001
.462	20	.559	.001
.537	20	.623	.001
.603	20	.679	.001
.678	20	.74	.001
.751	20	.799	.001
.812	20	.848	.001
.879	20	.902	.001
.953	20	.962	.001
1	20	1	.001

System: 1,4-xylene + n-octane; phases: Liquid, Gas
Property: Boiling temperature at pressure P, K (Liquid); method: Ebulliometric method (Recirculating still)
Mole fraction of n-octane	Pressure, kPa	Boiling temperature at pressure P, K	uncertainty
0	20	359.75	.02
.042	20	358.72	.02
.116	20	357.21	.02
.191	20	355.96	.02
.259	20	354.99	.02
.322	20	354.22	.02
.402	20	353.35	.02
.462	20	352.75	.02
.537	20	352.1	.02
.603	20	351.58	.02
.678	20	351.03	.02
.751	20	350.53	.02
.812	20	350.15	.02
.879	20	349.77	.02
.953	20	349.37	.02
1	20	349.13	.02

System: 1,2-xylene + n-octane; phases: Gas, Liquid
Property: Mole fraction of n-octane (Gas); method: Chromatography
Mole fraction of n-octane	Pressure, kPa	Mole fraction of n-octane	uncertainty
0	20	0	.001
.063	20	.11	.001
.148	20	.242	.001
.239	20	.363	.001
.32	20	.462	.001
.401	20	.548	.001
.485	20	.63	.001
.572	20	.707	.001
.664	20	.779	.001
.734	20	.832	.001
.8	20	.877	.001
.882	20	.93	.001
.965	20	.98	.001
1	20	1	.001

System: 1,2-xylene + n-octane; phases: Liquid, Gas
Property: Boiling temperature at pressure P, K (Liquid); method: Ebulliometric method (Recirculating still)
Mole fraction of n-octane	Pressure, kPa	Boiling temperature at pressure P, K	uncertainty
0	20	365.16	.02
.063	20	363.73	.02
.148	20	361.94	.02
.239	20	360.17	.02
.32	20	358.71	.02
.401	20	357.34	.02
.485	20	356	.02
.572	20	354.69	.02
.664	20	353.38	.02
.734	20	352.43	.02
.8	20	351.57	.02
.882	20	350.54	.02
.965	20	349.54	.02
1	20	349.13	.02

System: m-xylene + n-octane; phases: Gas, Liquid
Property: Mole fraction of n-octane (Gas); method: Chromatography
Mole fraction of n-octane	Pressure, kPa	Mole fraction of n-octane	uncertainty
0	20	0	.001
.042	20	.068	.001
.128	20	.193	.001
.202	20	.289	.001
.279	20	.379	.001
.362	20	.469	.001
.431	20	.538	.001
.505	20	.608	.001
.578	20	.673	.001
.654	20	.737	.001
.733	20	.801	.001
.819	20	.868	.001
.882	20	.915	.001
.948	20	.963	.001
1	20	1	.001

System: m-xylene + n-octane; phases: Liquid, Gas
Property: Boiling temperature at pressure P, K (Liquid); method: Ebulliometric method (Recirculating still)
Mole fraction of n-octane	Pressure, kPa	Boiling temperature at pressure P, K	uncertainty
0	20	360.59	.02
.042	20	359.83	.02
.128	20	358.41	.02
.202	20	357.31	.02
.279	20	356.27	.02
.362	20	355.23	.02
.431	20	354.43	.02
.505	20	353.62	.02
.578	20	352.87	.02
.654	20	352.13	.02
.733	20	351.39	.02
.819	20	350.63	.02
.882	20	350.09	.02
.948	20	349.55	.02
1	20	349.13	.02
