Measured thermophysical data. Phase equilibria in ternary aqueous mixtures of 1,3-butanediol with 2-ethyl-1-hexanol at T = (298.2, 303.2 and 308.2) K
Source: Fluid Phase Equilib., 2010, 10.1016/j.fluid.2009.12.033
Compound 1: 1,3-butanediol, C4H10O2, purity 99%
Compound 2: water, H2O, purity 99.8%
Compound 3: 2-ethyl-1-hexanol, C8H18O, purity 99%

System: 2-ethyl-1-hexanol + 1,3-butanediol + water; phases: Liquid mixture 2, Liquid mixture 1
Fixed: Pressure, kPa = 101
Property: Mole fraction of water (Liquid mixture 2); method: Chromatography
Property: Mole fraction of 1,3-butanediol (Liquid mixture 1); method: Chromatography
Property: Mole fraction of water (Liquid mixture 1); method: Chromatography
Temperature, K	Mole fraction of 1,3-butanediol	Mole fraction of water	uncertainty	Mole fraction of 1,3-butanediol	uncertainty	Mole fraction of water	uncertainty
298.2	.0568	.0174	.0005	.437	.0005	.5603	.0005
303.2	.1888	.0242	.0005	.595	.0005	.3938	.0005
308.2	.067	.019	.0005	.3288	.0005	.6665	.0005
308.2	.1015	.0214	.0005	.439	.0005	.5537	.0005
308.2	.126	.022	.0005	.4898	.0005	.5012	.0005
308.2	.1582	.0261	.0005	.52	.0005	.4716	.0005
308.2	.1802	.0328	.0005	.5672	.0005	.3773	.0005
298.2	.0844	.0232	.0005	.4998	.0005	.4928	.0005
298.2	.1	.0255	.0005	.5155	.0005	.4747	.0005
298.2	.1159	.0281	.0005	.5337	.0005	.4498	.0005
298.2	.165	.0404	.0005	.552	.0005	.4293	.0005
303.2	.0574	.013	.0005	.3786	.0005	.6171	.0005
303.2	.1026	.0201	.0005	.4444	.0005	.5508	.0005
303.2	.1362	.0202	.0005	.4995	.0005	.4913	.0005
303.2	.1638	.021	.0005	.539	.0005	.4515	.0005
