Measured thermophysical data. Vapour-liquid equilibrium of propionic acid + caproic acid, isobutyric acid + caproic acid, valeric acid + caproic acid and caproic acid + enanthoic acid binary mixtures
Source: Fluid Phase Equilib., 2014, 10.1016/j.fluid.2014.04.026
Compound 1: propionic acid, C3H6O2, purity 99.5%
Compound 2: caproic acid, C6H12O2, purity 99%
Compound 3: isobutyric acid, C4H8O2, purity 99.5%
Compound 4: valeric acid, C5H10O2, purity 99%
Compound 5: heptanoic acid, C7H14O2, purity 99%

System: propionic acid; phases: Liquid
Fixed: Pressure, kPa = 101.325
Property: Refractive index (Na D-line) (Liquid); method: Standard Abbe refractometry
Temperature, K	Refractive index (Na D-line)	uncertainty
293.15	1.3812	.0004

System: propionic acid; phases: Liquid, Gas
Property: Vapor or sublimation pressure, kPa (Liquid); method: Other
Temperature, K	Vapor or sublimation pressure, kPa	uncertainty
403.15	70.88	.2
408.15	83.59	.2

System: caproic acid; phases: Liquid
Fixed: Pressure, kPa = 101.325
Property: Refractive index (Na D-line) (Liquid); method: Standard Abbe refractometry
Temperature, K	Refractive index (Na D-line)	uncertainty
293.15	1.415	.0004

System: caproic acid; phases: Liquid, Gas
Property: Vapor or sublimation pressure, kPa (Liquid); method: Other
Temperature, K	Vapor or sublimation pressure, kPa	uncertainty
403.15	6.55	.2
408.15	8.25	.2
413.15	10.13	.2
413.15	97.06	.2
408.15	8.31	.2
423.15	15.49	.2
423.15	15.86	.2
433.15	22.33	.2
443.15	32.78	.2

System: isobutyric acid; phases: Liquid
Fixed: Pressure, kPa = 101.325
Property: Refractive index (Na D-line) (Liquid); method: Standard Abbe refractometry
Temperature, K	Refractive index (Na D-line)	uncertainty
293.15	1.3931	.0004

System: isobutyric acid; phases: Liquid, Gas
Property: Vapor or sublimation pressure, kPa (Liquid); method: Other
Temperature, K	Vapor or sublimation pressure, kPa	uncertainty
408.15	55.34	.2
423.15	88.93	.2

System: valeric acid; phases: Liquid
Fixed: Pressure, kPa = 101.325
Property: Refractive index (Na D-line) (Liquid); method: Standard Abbe refractometry
Temperature, K	Refractive index (Na D-line)	uncertainty
293.15	1.4082	.0004

System: valeric acid; phases: Liquid, Gas
Property: Vapor or sublimation pressure, kPa (Liquid); method: Other
Temperature, K	Vapor or sublimation pressure, kPa	uncertainty
423.15	31.74	.2
433.15	45.11	.2

System: heptanoic acid; phases: Liquid
Fixed: Pressure, kPa = 101.325
Property: Refractive index (Na D-line) (Liquid); method: Standard Abbe refractometry
Temperature, K	Refractive index (Na D-line)	uncertainty
293.15	1.4172	.0004

System: heptanoic acid; phases: Liquid, Gas
Property: Vapor or sublimation pressure, kPa (Liquid); method: Other
Temperature, K	Vapor or sublimation pressure, kPa	uncertainty
443.15	18.65	.2

System: propionic acid + caproic acid; phases: Liquid, Gas
Property: Mole fraction of propionic acid (Liquid); method: Chromatography
Pressure, kPa	Temperature, K	Mole fraction of propionic acid	uncertainty
6.55	403.15	0	.002
9.84	403.15	.09	.002
13.17	403.15	.167	.002
16.01	403.15	.211	.002
19.95	403.15	.287	.002
24.58	403.15	.359	.002
27.69	403.15	.416	.002
34.01	403.15	.535	.002
40.33	403.15	.647	.002
45.85	403.15	.731	.002
59.06	403.15	.889	.002
63.19	403.15	.937	.002
69.02	403.15	.985	.002
70.88	403.15	1	.002
8.25	408.15	0	.002
11.19	408.15	.065	.002
15.15	408.15	.131	.002
19.36	408.15	.213	.002
27.26	408.15	.333	.002
31.51	408.15	.388	.002
44.94	408.15	.562	.002
53.99	408.15	.665	.002
54.91	408.15	.675	.002
68.42	408.15	.841	.002
81.51	408.15	.986	.002
83.59	408.15	1	.002
10.13	413.15	0	.002
11.99	413.15	.03	.002
15.58	413.15	.082	.002
24.31	413.15	.223	.002
26.75	413.15	.253	.002
36.15	413.15	.391	.002
42.45	413.15	.477	.002
45.53	413.15	.511	.002
58.24	413.15	.661	.002
65.77	413.15	.742	.002
85.19	413.15	.9	.002
94.52	413.15	.975	.002
97.06	413.15	0	.002

System: propionic acid + caproic acid; phases: Gas, Liquid
Property: Mole fraction of propionic acid (Gas); method: Chromatography
Pressure, kPa	Temperature, K	Mole fraction of propionic acid	uncertainty
6.55	403.15	0	.002
9.84	403.15	.383	.002
13.17	403.15	.563	.002
16.01	403.15	.652	.002
19.95	403.15	.735	.002
24.58	403.15	.793	.002
27.69	403.15	.826	.002
34.01	403.15	.868	.002
40.33	403.15	.907	.002
45.85	403.15	.931	.002
59.06	403.15	.979	.002
63.19	403.15	.987	.002
69.02	403.15	.996	.002
70.88	403.15	1	.002
8.25	408.15	0	.002
11.19	408.15	.308	.002
15.15	408.15	.504	.002
19.36	408.15	.645	.002
27.26	408.15	.769	.002
31.51	408.15	.807	.002
44.94	408.15	.897	.002
53.99	408.15	.933	.002
54.91	408.15	.938	.002
68.42	408.15	.973	.002
81.51	408.15	.996	.002
83.59	408.15	1	.002
10.13	413.15	0	.002
11.99	413.15	.093	.002
15.58	413.15	.379	.002
24.31	413.15	.651	.002
26.75	413.15	.689	.002
36.15	413.15	.79	.002
42.45	413.15	.829	.002
45.53	413.15	.848	.002
58.24	413.15	.911	.002
65.77	413.15	.934	.002
85.19	413.15	.981	.002
94.52	413.15	.995	.002
97.06	413.15	0	.002

System: isobutyric acid + caproic acid; phases: Liquid, Gas
Property: Mole fraction of isobutyric acid (Liquid); method: Chromatography
Pressure, kPa	Temperature, K	Mole fraction of isobutyric acid	uncertainty
8.31	408.15	0	.002
12.81	408.15	.148	.002
16.45	408.15	.264	.002
20.49	408.15	.368	.002
26.91	408.15	.498	.002
28.78	408.15	.532	.002
32.86	408.15	.594	.002
37.01	408.15	.643	.002
41.42	408.15	.704	.002
44.73	408.15	.755	.002
49.06	408.15	.81	.002
54.14	408.15	.952	.002
55.34	408.15	1	.002
15.49	423.15	0	.002
20.87	423.15	.109	.002
30.98	423.15	.287	.002
35.41	423.15	.356	.002
46	423.15	.5	.002
51.82	423.15	.568	.002
52.28	423.15	.568	.002
63.21	423.15	.657	.002
72	423.15	.736	.002
80.57	423.15	.822	.002
85.19	423.15	.931	.002
88.93	423.15	1	.002

System: isobutyric acid + caproic acid; phases: Gas, Liquid
Property: Mole fraction of isobutyric acid (Gas); method: Chromatography
Pressure, kPa	Temperature, K	Mole fraction of isobutyric acid	uncertainty
8.31	408.15	0	.002
12.81	408.15	.417	.002
16.45	408.15	.547	.002
20.49	408.15	.631	.002
26.91	408.15	.745	.002
28.78	408.15	.768	.002
32.86	408.15	.811	.002
37.01	408.15	.843	.002
41.42	408.15	.88	.002
44.73	408.15	.907	.002
49.06	408.15	.94	.002
54.14	408.15	.984	.002
55.34	408.15	1	.002
15.49	423.15	0	.002
20.87	423.15	.308	.002
30.98	423.15	.555	.002
35.41	423.15	.613	.002
46	423.15	.726	.002
51.82	423.15	.777	.002
52.28	423.15	.781	.002
63.21	423.15	.841	.002
72	423.15	.886	.002
80.57	423.15	.944	.002
85.19	423.15	.975	.002
88.93	423.15	1	.002

System: valeric acid + caproic acid; phases: Liquid, Gas
Property: Mole fraction of valeric acid (Liquid); method: Chromatography
Pressure, kPa	Temperature, K	Mole fraction of valeric acid	uncertainty
15.86	423.15	0	.002
16.69	423.15	.07	.002
17.59	423.15	.141	.002
18.28	423.15	.202	.002
19.14	423.15	.275	.002
20.55	423.15	.384	.002
21.15	423.15	.422	.002
22.48	423.15	.507	.002
23.48	423.15	.567	.002
24.92	423.15	.639	.002
25.66	423.15	.682	.002
26.46	423.15	.733	.002
28.57	423.15	.848	.002
29.74	423.15	.908	.002
30.91	423.15	.968	.002
31.74	423.15	1	.002
22.33	433.15	0	.002
23.29	433.15	.031	.002
25.14	433.15	.109	.002
27.03	433.15	.184	.002
28.99	433.15	.277	.002
31.17	433.15	.414	.002
32.2	433.15	.476	.002
34.74	433.15	.591	.002
35.77	433.15	.639	.002
37.53	433.15	.709	.002
38.58	433.15	.756	.002
41.14	433.15	.847	.002
42.84	433.15	.903	.002
44.14	433.15	.94	.002
45.11	433.15	1	.002

System: valeric acid + caproic acid; phases: Gas, Liquid
Property: Mole fraction of valeric acid (Gas); method: Chromatography
Pressure, kPa	Temperature, K	Mole fraction of valeric acid	uncertainty
15.86	423.15	0	.002
16.69	423.15	.118	.002
17.59	423.15	.212	.002
18.28	423.15	.294	.002
19.14	423.15	.373	.002
20.55	423.15	.483	.002
21.15	423.15	.523	.002
22.48	423.15	.608	.002
23.48	423.15	.653	.002
24.92	423.15	.728	.002
25.66	423.15	.765	.002
26.46	423.15	.805	.002
28.57	423.15	.898	.002
29.74	423.15	.938	.002
30.91	423.15	.979	.002
31.74	423.15	1	.002
22.33	433.15	0	.002
23.29	433.15	.049	.002
25.14	433.15	.16	.002
27.03	433.15	.278	.002
28.99	433.15	.411	.002
31.17	433.15	.533	.002
32.2	433.15	.584	.002
34.74	433.15	.691	.002
35.77	433.15	.731	.002
37.53	433.15	.789	.002
38.58	433.15	.827	.002
41.14	433.15	.888	.002
42.84	433.15	.927	.002
44.14	433.15	.969	.002
45.11	433.15	1	.002

System: heptanoic acid + caproic acid; phases: Liquid, Gas
Property: Mole fraction of caproic acid (Liquid); method: Chromatography
Pressure, kPa	Temperature, K	Mole fraction of caproic acid	uncertainty
18.65	443.15	0	.002
19.11	443.15	.037	.002
20.01	443.15	.085	.002
20.74	443.15	.139	.002
21.48	443.15	.197	.002
22.71	443.15	.285	.002
23.65	443.15	.351	.002
24.61	443.15	.412	.002
25.97	443.15	.504	.002
27.95	443.15	.638	.002
29.83	443.15	.741	.002
30.98	443.15	.803	.002
31.91	443.15	.87	.002
32.21	443.15	.901	.002
32.78	443.15	1	.002

System: heptanoic acid + caproic acid; phases: Gas, Liquid
Property: Mole fraction of caproic acid (Gas); method: Chromatography
Pressure, kPa	Temperature, K	Mole fraction of caproic acid	uncertainty
18.65	443.15	0	.002
19.11	443.15	.074	.002
20.01	443.15	.153	.002
20.74	443.15	.212	.002
21.48	443.15	.286	.002
22.71	443.15	.394	.002
23.65	443.15	.465	.002
24.61	443.15	.514	.002
25.97	443.15	.604	.002
27.95	443.15	.722	.002
29.83	443.15	.806	.002
30.98	443.15	.864	.002
31.91	443.15	.905	.002
32.21	443.15	.915	.002
32.78	443.15	1	.002
