Measured thermophysical data. Phase diagrams of aqueous biphasic systems composed of ionic liquids and dipotassium carbonate at different temperatures
Source: Fluid Phase Equilib., 2016, 10.1016/j.fluid.2016.02.015
Compound 1: potassium carbonate, CK2O3, purity 99%
Compound 2: 1-butyl-3-methylimidazolium nitrate, C8H15N3O3, purity 98%
Compound 3: 1-hexyl-3-methylimidazolium nitrate, C10H19N3O3, purity 98%
Compound 4: 1-methyl-3-octylimidazolium nitrate, C12H23N3O3, purity 98%
Compound 5: water, H2O, purity 99.8%

System: potassium carbonate + water + 1-butyl-3-methylimidazolium nitrate; phases: Liquid mixture 1, Liquid mixture 2
Fixed: Pressure, kPa = 88
Property: Mass fraction of potassium carbonate (Liquid mixture 1); method: Titration method
Temperature, K	Mass fraction of 1-butyl-3-methylimidazolium nitrate	Mass fraction of potassium carbonate	uncertainty
288.15	.5556	.0537	
288.15	.536	.0569	
288.15	.5216	.0588	
288.15	.5025	.0619	
288.15	.4838	.0647	
288.15	.4701	.067	
288.15	.4471	.071	
288.15	.426	.0749	
288.15	.4049	.0792	
288.15	.3887	.0826	
288.15	.3685	.0872	
288.15	.358	.0905	
288.15	.3384	.0948	
288.15	.3249	.0987	
288.15	.3087	.1026	
288.15	.2983	.1063	
288.15	.2862	.1096	
288.15	.2745	.1131	
288.15	.2639	.1164	
288.15	.255	.1193	
288.15	.2451	.122	
288.15	.235	.1254	
288.15	.226	.1286	
288.15	.2176	.1317	
288.15	.2109	.1342	
288.15	.2034	.1368	
288.15	.2019	.1374	
288.15	.203	.1385	
288.15	.1945	.1403	
288.15	.1934	.1416	
288.15	.1877	.1431	
288.15	.1835	.1448	
288.15	.1829	.1461	
288.15	.1802	.1471	
288.15	.1752	.149	
288.15	.1737	.1499	
288.15	.1716	.1511	
288.15	.167	.1527	
288.15	.1655	.1538	
288.15	.1623	.1551	
288.15	.1598	.1563	
288.15	.1573	.1572	
288.15	.1548	.1583	
288.15	.1529	.1595	
288.15	.1518	.1601	
288.15	.1491	.161	
288.15	.1487	.1619	
288.15	.1436	.1642	
288.15	.1412	.1652	
288.15	.1398	.1661	
288.15	.1368	.1677	
288.15	.1359	.1681	
288.15	.1348	.1691	
288.15	.1289	.1716	
288.15	.1269	.173	
288.15	.123	.1751	
288.15	.1192	.1769	
288.15	.1183	.1776	
288.15	.1157	.1797	
288.15	.1129	.1813	
288.15	.1121	.1821	
288.15	.1082	.1839	
288.15	.1046	.1859	
288.15	.1029	.1875	
288.15	.0999	.1891	
288.15	.0955	.1917	
288.15	.0949	.1925	
288.15	.0929	.1941	
288.15	.0898	.1959	
288.15	.0853	.1972	
288.15	.0845	.1986	
288.15	.0815	.2001	
288.15	.0799	.2025	
288.15	.0768	.2035	
288.15	.0754	.2051	
288.15	.0737	.2068	
288.15	.0715	.2082	
288.15	.0702	.2096	
288.15	.0671	.2113	
288.15	.0667	.2122	
288.15	.0651	.2135	
288.15	.0635	.2149	
288.15	.0613	.2163	
288.15	.0603	.2174	
288.15	.0598	.2188	
288.15	.0577	.2201	
288.15	.0569	.2216	
288.15	.0554	.2224	
288.15	.0549	.2234	
288.15	.0538	.2246	
288.15	.0519	.2257	
288.15	.0514	.2271	
288.15	.0503	.2282	
288.15	.0487	.2291	
288.15	.0477	.2301	
288.15	.0463	.2317	
288.15	.0455	.232	
288.15	.0449	.2336	
288.15	.0431	.2343	
288.15	.0418	.2358	
298.15	.5745	.0615	
298.15	.5607	.063	
298.15	.5425	.0644	
298.15	.5316	.0662	
298.15	.5073	.0695	
298.15	.4917	.0715	
298.15	.4711	.0747	
298.15	.4542	.0775	
298.15	.4357	.0806	
298.15	.4189	.0838	
298.15	.4021	.0872	
298.15	.3866	.0908	
298.15	.3759	.0931	
298.15	.3614	.0966	
298.15	.3473	.0996	
298.15	.3313	.1039	
298.15	.3214	.1063	
298.15	.3118	.109	
298.15	.3002	.1122	
298.15	.2926	.1138	
298.15	.2862	.1156	
298.15	.2774	.1183	
298.15	.268	.1211	
298.15	.2597	.1238	
298.15	.2515	.1265	
298.15	.2419	.1298	
298.15	.2351	.1321	
298.15	.2283	.1346	
298.15	.2239	.1362	
298.15	.2156	.1389	
298.15	.2127	.1394	
298.15	.2092	.1408	
298.15	.2057	.1425	
298.15	.2025	.1437	
298.15	.1991	.1454	
298.15	.1959	.1468	
298.15	.1929	.1481	
298.15	.1899	.1495	
298.15	.1869	.151	
298.15	.1843	.1519	
298.15	.1814	.1534	
298.15	.1786	.1547	
298.15	.176	.156	
298.15	.1735	.1572	
298.15	.1711	.1581	
298.15	.1687	.1592	
298.15	.1663	.1605	
298.15	.164	.1616	
298.15	.1617	.1628	
298.15	.1596	.1638	
298.15	.1574	.1649	
298.15	.1551	.1661	
298.15	.1532	.1671	
298.15	.1511	.1682	
298.15	.1491	.1693	
298.15	.1471	.1703	
298.15	.1452	.1713	
298.15	.1417	.1732	
298.15	.1381	.1751	
298.15	.1348	.177	
298.15	.1315	.179	
298.15	.1299	.1799	
298.15	.1269	.1816	
298.15	.1239	.1835	
298.15	.1215	.1843	
298.15	.1188	.1859	
298.15	.1161	.1877	
298.15	.1135	.1895	
298.15	.1109	.1912	
298.15	.1084	.193	
298.15	.1062	.1945	
298.15	.1039	.1962	
298.15	.1017	.1979	
298.15	.0996	.1993	
298.15	.0976	.2007	
298.15	.0955	.2024	
298.15	.0936	.204	
298.15	.0917	.2056	
298.15	.0898	.2071	
298.15	.088	.2087	
298.15	.0863	.2102	
298.15	.0846	.2116	
298.15	.083	.2131	
298.15	.0815	.2143	
298.15	.08	.2155	
298.15	.0785	.2169	
298.15	.0771	.2182	
298.15	.0757	.2194	
298.15	.0743	.2208	
298.15	.073	.2221	
298.15	.0718	.2232	
298.15	.0706	.2243	
298.15	.0694	.2255	
298.15	.0682	.2266	
298.15	.067	.2278	
298.15	.0659	.229	
298.15	.0649	.23	
298.15	.0638	.2311	
298.15	.0628	.2322	
298.15	.0617	.2333	
298.15	.0607	.2345	
298.15	.0598	.2356	
298.15	.0588	.2367	
298.15	.0579	.2378	
308.15	.5871	.0639	
308.15	.5686	.0656	
308.15	.5605	.0666	
308.15	.5448	.0687	
308.15	.5301	.0708	
308.15	.5172	.0729	
308.15	.4998	.0756	
308.15	.4841	.0782	
308.15	.4694	.08	
308.15	.4551	.0825	
308.15	.4441	.0844	
308.15	.4253	.0877	
308.15	.4111	.0909	
308.15	.3979	.0935	
308.15	.3841	.0963	
308.15	.3677	.0997	
308.15	.3538	.1028	
308.15	.3367	.1069	
308.15	.3219	.1111	
308.15	.3106	.1137	
308.15	.3018	.1161	
308.15	.2901	.1195	
308.15	.2811	.1225	
308.15	.272	.1256	
308.15	.2618	.1283	
308.15	.2572	.1305	
308.15	.2487	.1335	
308.15	.2437	.1352	
308.15	.2432	.1356	
308.15	.2382	.1371	
308.15	.2357	.1382	
308.15	.2329	.1396	
308.15	.2283	.1408	
308.15	.2231	.1429	
308.15	.2225	.1435	
308.15	.2156	.1461	
308.15	.2135	.1472	
308.15	.2126	.1473	
308.15	.2081	.1493	
308.15	.2055	.1506	
308.15	.2013	.1523	
308.15	.1967	.1534	
308.15	.1971	.1541	
308.15	.1932	.1556	
308.15	.1927	.1563	
308.15	.1871	.1576	
308.15	.1889	.1583	
308.15	.1842	.1598	
308.15	.1826	.1611	
308.15	.1792	.1626	
308.15	.1781	.1632	
308.15	.1762	.1641	
308.15	.1736	.1653	
308.15	.1748	.1661	
308.15	.1685	.1671	
308.15	.1637	.1697	
308.15	.1594	.1717	
308.15	.1572	.1732	
308.15	.1557	.1755	
308.15	.1517	.1767	
308.15	.1478	.1778	
308.15	.1458	.1798	
308.15	.1436	.181	
308.15	.1423	.182	
308.15	.1376	.1838	
308.15	.1335	.1862	
308.15	.134	.1872	
308.15	.1328	.1896	
308.15	.1273	.1904	
308.15	.1243	.1922	
308.15	.1235	.1944	
308.15	.1226	.1952	
308.15	.1198	.1972	
308.15	.1172	.1984	
308.15	.1141	.2008	
308.15	.1125	.2023	
308.15	.1106	.204	
308.15	.11	.2045	
308.15	.1081	.2067	
308.15	.1052	.2075	
308.15	.1039	.2096	
308.15	.1038	.2107	
308.15	.1019	.2107	
308.15	.0985	.2131	
308.15	.0977	.2142	
308.15	.0964	.2153	
308.15	.0951	.2164	
308.15	.0936	.2181	
308.15	.0925	.2191	
308.15	.0894	.2211	
308.15	.0894	.2215	
308.15	.0886	.2223	
308.15	.0875	.2233	
308.15	.0854	.2252	
308.15	.0842	.226	
308.15	.0829	.2279	
308.15	.0826	.228	
308.15	.0814	.2291	
308.15	.0806	.2303	
308.15	.0791	.232	
308.15	.0779	.2329	
308.15	.078	.2337	

System: potassium carbonate + water + 1-butyl-3-methylimidazolium nitrate; phases: Liquid mixture 2, Liquid mixture 1
Fixed: Pressure, kPa = 88
Property: Mass fraction of potassium carbonate (Liquid mixture 2); method: Other
Property: Mass fraction of 1-butyl-3-methylimidazolium nitrate (Liquid mixture 1); method: Other
Property: Mass fraction of potassium carbonate (Liquid mixture 1); method: Other
Temperature, K	Mass fraction of 1-butyl-3-methylimidazolium nitrate	Mass fraction of potassium carbonate	uncertainty	Mass fraction of 1-butyl-3-methylimidazolium nitrate	uncertainty	Mass fraction of potassium carbonate	uncertainty
288.15	.0928	.1919	.001	.4286	.001	.0752	.001
298.15	.0633	.2319	.001	.629	.001	.0546	.001
298.15	.0583	.2405	.001	.6852	.001	.0501	.001
298.15	.0504	.2484	.001	.7406	.001	.0448	.001
308.15	.1032	.2118	.001	.4306	.001	.0872	.001
308.15	.0914	.2223	.001	.4814	.001	.0803	.001
308.15	.0812	.2326	.001	.5326	.001	.0723	.001
308.15	.0706	.2446	.001	.5826	.001	.0656	.001
308.15	.0598	.2562	.001	.6362	.001	.0591	.001
308.15	.0502	.2697	.001	.7016	.001	.0528	.001
288.15	.0844	.1994	.001	.4866	.001	.066	.001
288.15	.0753	.2063	.001	.5474	.001	.0569	.001
288.15	.0688	.2124	.001	.6021	.001	.0491	.001
288.15	.0611	.2192	.001	.6542	.001	.0441	.001
288.15	.0539	.2258	.001	.7067	.001	.0379	.001
298.15	.0881	.2075	.001	.4292	.001	.0836	.001
298.15	.0815	.2158	.001	.4905	.001	.074	.001
298.15	.0734	.223	.001	.5536	.001	.0652	.001

System: potassium carbonate + water + 1-hexyl-3-methylimidazolium nitrate; phases: Liquid mixture 1, Liquid mixture 2
Fixed: Pressure, kPa = 88
Property: Mass fraction of potassium carbonate (Liquid mixture 1); method: Titration method
Temperature, K	Mass fraction of 1-hexyl-3-methylimidazolium nitrate	Mass fraction of potassium carbonate	uncertainty
288.15	.5751	.0199	
288.15	.5701	.0205	
288.15	.5567	.0221	
288.15	.5381	.0247	
288.15	.5178	.0276	
288.15	.5013	.0303	
288.15	.4845	.0332	
288.15	.471	.0356	
288.15	.4612	.0375	
288.15	.451	.0396	
288.15	.4424	.0414	
288.15	.4336	.0433	
288.15	.4266	.0453	
288.15	.418	.0475	
288.15	.4043	.0505	
288.15	.3956	.053	
288.15	.3811	.0569	
288.15	.3656	.0609	
288.15	.3526	.0647	
288.15	.3412	.0685	
288.15	.3286	.0729	
288.15	.3142	.0767	
288.15	.3045	.0804	
288.15	.2971	.0837	
288.15	.2859	.0874	
288.15	.276	.0907	
288.15	.267	.0946	
288.15	.2589	.0978	
288.15	.2507	.1011	
288.15	.2419	.1043	
288.15	.235	.1076	
288.15	.2278	.1107	
288.15	.2203	.1135	
288.15	.2145	.1164	
288.15	.2093	.1192	
288.15	.2036	.1219	
288.15	.1977	.1246	
288.15	.1916	.1274	
288.15	.1868	.1297	
288.15	.1809	.1321	
288.15	.177	.1345	
288.15	.1709	.137	
288.15	.1658	.139	
288.15	.1636	.1412	
288.15	.1574	.1433	
288.15	.1547	.1453	
288.15	.1518	.1473	
288.15	.1472	.1492	
288.15	.1447	.1511	
288.15	.1415	.1529	
288.15	.1382	.1547	
288.15	.1337	.1566	
288.15	.1308	.1583	
288.15	.1267	.16	
288.15	.1252	.1615	
288.15	.1228	.1635	
288.15	.1196	.1648	
288.15	.1157	.1671	
288.15	.1138	.1683	
288.15	.1114	.1697	
288.15	.107	.1713	
288.15	.1056	.1728	
288.15	.1024	.1742	
288.15	.1002	.1756	
288.15	.0982	.1769	
288.15	.0969	.1784	
288.15	.0938	.1798	
288.15	.0919	.1811	
288.15	.0897	.1826	
288.15	.0891	.1837	
288.15	.0873	.185	
288.15	.0845	.1863	
288.15	.084	.1866	
288.15	.0834	.1878	
288.15	.0798	.1889	
288.15	.0791	.1902	
288.15	.0766	.1913	
288.15	.076	.1925	
288.15	.0744	.1937	
288.15	.0728	.195	
288.15	.0724	.196	
288.15	.0699	.1972	
288.15	.0686	.1983	
288.15	.0662	.1994	
288.15	.0657	.2006	
288.15	.0624	.2017	
288.15	.0622	.2027	
288.15	.06	.2037	
288.15	.0587	.2049	
288.15	.0575	.2059	
288.15	.0573	.2069	
288.15	.0551	.208	
288.15	.0541	.209	
288.15	.0519	.21	
288.15	.0519	.211	
288.15	.0498	.2119	
288.15	.0487	.213	
288.15	.0478	.2139	
288.15	.0467	.2149	
288.15	.0458	.2158	
298.15	.5997	.0219	
298.15	.5886	.0232	
298.15	.5698	.0257	
298.15	.5534	.028	
298.15	.5363	.0306	
298.15	.5205	.0331	
298.15	.5052	.0358	
298.15	.4918	.0382	
298.15	.4782	.0408	
298.15	.4668	.0432	
298.15	.4571	.0452	
298.15	.4444	.0477	
298.15	.434	.0499	
298.15	.4265	.0515	
298.15	.4114	.0554	
298.15	.3971	.0593	
298.15	.3833	.0633	
298.15	.3704	.0671	
298.15	.358	.0709	
298.15	.3457	.0753	
298.15	.3344	.0791	
298.15	.3237	.0827	
298.15	.3138	.0861	
298.15	.304	.0898	
298.15	.2949	.0931	
298.15	.2857	.097	
298.15	.2774	.1002	
298.15	.2693	.1035	
298.15	.2616	.1067	
298.15	.2542	.11	
298.15	.2471	.1131	
298.15	.2406	.1158	
298.15	.2341	.1188	
298.15	.228	.1216	
298.15	.2222	.1242	
298.15	.2166	.1269	
298.15	.211	.1298	
298.15	.206	.1321	
298.15	.2011	.1345	
298.15	.1963	.1368	
298.15	.1916	.1394	
298.15	.1874	.1414	
298.15	.1832	.1436	
298.15	.1791	.1457	
298.15	.1753	.1477	
298.15	.1716	.1497	
298.15	.168	.1516	
298.15	.1645	.1535	
298.15	.1612	.1552	
298.15	.1579	.1571	
298.15	.1547	.159	
298.15	.1517	.1606	
298.15	.1488	.1624	
298.15	.1461	.1639	
298.15	.1431	.1659	
298.15	.1406	.1672	
298.15	.1376	.1695	
298.15	.1353	.1707	
298.15	.1329	.1721	
298.15	.1305	.1737	
298.15	.1282	.1751	
298.15	.128	.1765	
298.15	.1259	.178	
298.15	.1238	.1793	
298.15	.1217	.1808	
298.15	.1197	.1822	
298.15	.1178	.1835	
298.15	.1158	.185	
298.15	.114	.1861	
298.15	.1123	.1874	
298.15	.1105	.1886	
298.15	.1092	.189	
298.15	.1076	.1901	
298.15	.106	.1913	
298.15	.1044	.1926	
298.15	.1029	.1937	
298.15	.1014	.1949	
298.15	.0999	.1961	
298.15	.0984	.1973	
298.15	.097	.1984	
298.15	.0956	.1996	
298.15	.0943	.2006	
298.15	.093	.2018	
298.15	.0916	.203	
298.15	.0904	.2041	
298.15	.0892	.2051	
298.15	.088	.2061	
298.15	.0868	.2072	
298.15	.0856	.2083	
298.15	.0845	.2093	
298.15	.0833	.2104	
298.15	.0823	.2113	
298.15	.0812	.2124	
298.15	.0802	.2134	
298.15	.0791	.2143	
298.15	.0781	.2154	
298.15	.0771	.2163	
298.15	.0762	.2173	
298.15	.0752	.2182	
298.15	.0743	.2192	
308.15	.5991	.0254	
308.15	.5908	.0265	
308.15	.579	.0281	
308.15	.563	.0305	
308.15	.55	.0325	
308.15	.5394	.0342	
308.15	.5278	.0362	
308.15	.5143	.0387	
308.15	.5047	.0405	
308.15	.4945	.0425	
308.15	.4817	.0449	
308.15	.4723	.0471	
308.15	.461	.0488	
308.15	.4443	.0526	
308.15	.4308	.0565	
308.15	.4165	.0605	
308.15	.4018	.0644	
308.15	.3877	.0682	
308.15	.3757	.0725	
308.15	.3649	.0763	
308.15	.353	.08	
308.15	.3414	.0833	
308.15	.3341	.087	
308.15	.3252	.0904	
308.15	.3122	.0942	
308.15	.3062	.0974	
308.15	.2971	.1007	
308.15	.2884	.1039	
308.15	.2827	.1072	
308.15	.2737	.1103	
308.15	.2675	.1131	
308.15	.2639	.1161	
308.15	.2549	.1189	
308.15	.2513	.1215	
308.15	.2447	.1242	
308.15	.2398	.1271	
308.15	.2343	.1293	
308.15	.2285	.1317	
308.15	.2259	.1341	
308.15	.22	.1366	
308.15	.2151	.1386	
308.15	.212	.1408	
308.15	.207	.1429	
308.15	.2034	.1449	
308.15	.2017	.1469	
308.15	.1962	.1488	
308.15	.1939	.1507	
308.15	.1927	.1525	
308.15	.1875	.1543	
308.15	.1831	.1563	
308.15	.1813	.1579	
308.15	.1783	.1597	
308.15	.1769	.1611	
308.15	.1725	.1631	
308.15	.1703	.1644	
308.15	.1665	.1667	
308.15	.1666	.1679	
308.15	.1633	.1694	
308.15	.1598	.1709	
308.15	.1574	.1724	
308.15	.1562	.1738	
308.15	.154	.1752	
308.15	.154	.1765	
308.15	.1497	.178	
308.15	.1475	.1794	
308.15	.1446	.1807	
308.15	.1433	.1822	
308.15	.1436	.1834	
308.15	.1397	.1846	
308.15	.1378	.1859	
308.15	.1383	.1863	
308.15	.1356	.1874	
308.15	.1339	.1885	
308.15	.1321	.1898	
308.15	.1295	.1909	
308.15	.1288	.1921	
308.15	.1272	.1933	
308.15	.1264	.1946	
308.15	.1229	.1956	
308.15	.1232	.1968	
308.15	.1198	.1979	
308.15	.1183	.199	
308.15	.1167	.2002	
308.15	.1152	.2013	
308.15	.1138	.2023	
308.15	.1125	.2034	
308.15	.111	.2045	
308.15	.1086	.2055	
308.15	.1083	.2066	
308.15	.107	.2076	
308.15	.1047	.2086	
308.15	.1034	.2096	
308.15	.1032	.2106	
308.15	.102	.2116	
308.15	.1007	.2126	
308.15	.0985	.2136	
308.15	.0973	.2145	
308.15	.0972	.2155	
308.15	.0965	.2165	
308.15	.0947	.2187	
308.15	.0927	.2204	
308.15	.0906	.2221	
308.15	.0874	.225	
308.15	.0857	.2265	

System: potassium carbonate + water + 1-hexyl-3-methylimidazolium nitrate; phases: Liquid mixture 2, Liquid mixture 1
Fixed: Pressure, kPa = 88
Property: Mass fraction of 1-hexyl-3-methylimidazolium nitrate (Liquid mixture 2); method: Other
Property: Mass fraction of 1-hexyl-3-methylimidazolium nitrate (Liquid mixture 1); method: Other
Property: Mass fraction of potassium carbonate (Liquid mixture 1); method: Other
Temperature, K	Mass fraction of potassium carbonate	Mass fraction of 1-hexyl-3-methylimidazolium nitrate	uncertainty	Mass fraction of 1-hexyl-3-methylimidazolium nitrate	uncertainty	Mass fraction of potassium carbonate	uncertainty
288.15	.1829	.0904	.001	.3928	.001	.0552	.001
288.15	.1904	.0811	.001	.4527	.001	.0418	.001
288.15	.1986	.0702	.001	.5166	.001	.0282	.001
288.15	.2052	.0623	.001	.5824	.001	.0193	.001
288.15	.2131	.0531	.001	.6353	.001	.0134	.001
288.15	.2191	.0463	.001	.6865	.001	.0101	.001
298.15	.2041	.0878	.001	.4152	.001	.0558	.001
298.15	.2127	.0792	.001	.4755	.001	.0418	.001
298.15	.2224	.0666	.001	.5421	.001	.0294	.001
298.15	.2298	.059	.001	.6041	.001	.0211	.001
298.15	.2366	.0531	.001	.6523	.001	.0173	.001
298.15	.2443	.046	.001	.7037	.001	.013	.001
308.15	.2282	.0822	.001	.4136	.001	.0619	.001
308.15	.2358	.0741	.001	.475	.001	.0461	.001
308.15	.2461	.0639	.001	.5495	.001	.0322	.001
308.15	.2533	.0572	.001	.6043	.001	.026	.001
308.15	.2595	.0525	.001	.6542	.001	.0181	.001
308.15	.2672	.0475	.001	.6993	.001	.0155	.001

System: potassium carbonate + water + 1-methyl-3-octylimidazolium nitrate; phases: Liquid mixture 1, Liquid mixture 2
Fixed: Pressure, kPa = 88
Property: Mass fraction of potassium carbonate (Liquid mixture 1); method: Titration method
Temperature, K	Mass fraction of 1-methyl-3-octylimidazolium nitrate	Mass fraction of potassium carbonate	uncertainty
288.15	.5815	.0301	
288.15	.569	.032	
288.15	.558	.0341	
288.15	.5532	.0342	
288.15	.5472	.0352	
288.15	.534	.0374	
288.15	.5207	.0396	
288.15	.5072	.0419	
288.15	.5013	.0431	
288.15	.4952	.0444	
288.15	.4825	.0468	
288.15	.47	.0499	
288.15	.4589	.0519	
288.15	.4471	.0544	
288.15	.442	.0556	
288.15	.4352	.0572	
288.15	.4245	.0598	
288.15	.4168	.0619	
288.15	.4077	.0642	
288.15	.399	.0666	
288.15	.3954	.0675	
288.15	.3895	.0692	
288.15	.3806	.0717	
288.15	.3711	.0745	
288.15	.3641	.0766	
288.15	.3556	.0794	
288.15	.3481	.0817	
288.15	.3406	.0842	
288.15	.3329	.0867	
288.15	.3252	.0893	
288.15	.3179	.0918	
288.15	.3107	.093	
288.15	.3067	.0949	
288.15	.3009	.0959	
288.15	.2961	.0982	
288.15	.2928	.0994	
288.15	.2877	.1013	
288.15	.2825	.1033	
288.15	.2772	.1053	
288.15	.2732	.1069	
288.15	.2671	.1093	
288.15	.2629	.111	
288.15	.258	.113	
288.15	.2496	.1165	
288.15	.2463	.1179	
288.15	.2423	.1202	
288.15	.2338	.1238	
288.15	.231	.1251	
288.15	.2271	.1268	
288.15	.2239	.1282	
288.15	.2194	.1303	
288.15	.2129	.1331	
288.15	.2064	.1361	
288.15	.2032	.1376	
288.15	.1948	.1423	
288.15	.1922	.1436	
288.15	.1894	.145	
288.15	.1843	.1475	
288.15	.1823	.1487	
288.15	.1791	.1503	
288.15	.1737	.1531	
288.15	.1693	.1553	
288.15	.1647	.1577	
288.15	.1601	.1602	
288.15	.1553	.1628	
288.15	.1512	.1651	
288.15	.1473	.1673	
288.15	.1433	.1696	
288.15	.1393	.1722	
288.15	.1359	.1742	
288.15	.1324	.1762	
288.15	.129	.1783	
288.15	.1259	.1802	
288.15	.1184	.1848	
288.15	.1156	.1866	
288.15	.1129	.1883	
288.15	.1101	.1901	
288.15	.1075	.1919	
288.15	.104	.1949	
288.15	.1018	.1964	
288.15	.0999	.1978	
288.15	.0986	.1991	
288.15	.0979	.1996	
288.15	.0957	.2012	
288.15	.0933	.2029	
288.15	.0912	.2045	
288.15	.0877	.2071	
288.15	.0859	.2085	
288.15	.0841	.2099	
288.15	.0824	.2112	
288.15	.0808	.2125	
288.15	.0775	.2152	
288.15	.0759	.2165	
288.15	.0743	.2179	
288.15	.0728	.2191	
288.15	.0699	.2216	
288.15	.067	.2242	
288.15	.0657	.2254	
288.15	.0631	.2278	
288.15	.0608	.229	
288.15	.0606	.2301	
288.15	.0585	.2312	
288.15	.0553	.2344	
288.15	.0537	.2355	
288.15	.0537	.2375	
288.15	.0511	.2386	
288.15	.051	.2397	
298.15	.6024	.0375	
298.15	.5951	.0385	
298.15	.5818	.0395	
298.15	.5697	.0418	
298.15	.5535	.0443	
298.15	.5381	.0467	
298.15	.5288	.0486	
298.15	.5167	.0509	
298.15	.501	.0534	
298.15	.4904	.0554	
298.15	.4795	.0575	
298.15	.467	.0598	
298.15	.4562	.0625	
298.15	.4467	.064	
298.15	.4331	.0675	
298.15	.4232	.0698	
298.15	.4127	.0728	
298.15	.4027	.0746	
298.15	.395	.0767	
298.15	.3839	.0797	
298.15	.373	.0826	
298.15	.3645	.0858	
298.15	.3574	.0878	
298.15	.3477	.0899	
298.15	.3385	.0931	
298.15	.3292	.0964	
298.15	.3235	.0972	
298.15	.3142	.1004	
298.15	.3056	.1037	
298.15	.2956	.1061	
298.15	.2849	.1102	
298.15	.2753	.1142	
298.15	.2664	.1178	
298.15	.258	.1213	
298.15	.2503	.1244	
298.15	.2423	.128	
298.15	.2353	.131	
298.15	.2281	.1345	
298.15	.2217	.1373	
298.15	.2153	.1403	
298.15	.2095	.1429	
298.15	.2037	.1458	
298.15	.1982	.1485	
298.15	.193	.151	
298.15	.1878	.1538	
298.15	.1828	.1565	
298.15	.1783	.1588	
298.15	.1739	.1612	
298.15	.1695	.1637	
298.15	.1651	.1663	
298.15	.1612	.1686	
298.15	.1573	.1708	
298.15	.1536	.173	
298.15	.1499	.1754	
298.15	.1466	.1773	
298.15	.1432	.1794	
298.15	.14	.1814	
298.15	.137	.1834	
298.15	.134	.1853	
298.15	.131	.1874	
298.15	.1282	.1892	
298.15	.1256	.1909	
298.15	.123	.1928	
298.15	.1204	.1945	
298.15	.118	.1961	
298.15	.1142	.199	
298.15	.1104	.2017	
298.15	.1083	.2022	
298.15	.1062	.2039	
298.15	.1041	.2055	
298.15	.1021	.2071	
298.15	.1003	.2083	
298.15	.0984	.2098	
298.15	.0967	.2111	
298.15	.0949	.2125	
298.15	.0932	.2139	
298.15	.0916	.2152	
298.15	.09	.2166	
298.15	.0884	.2178	
298.15	.0869	.2192	
298.15	.0854	.2205	
298.15	.0839	.2218	
298.15	.0825	.2231	
298.15	.0811	.2243	
298.15	.0798	.2255	
298.15	.0784	.2269	
298.15	.0771	.228	
298.15	.0759	.2292	
298.15	.0746	.2304	
298.15	.0734	.2316	
298.15	.0723	.2327	
298.15	.0711	.2339	
298.15	.0701	.2348	
298.15	.069	.236	
298.15	.0679	.237	
298.15	.0669	.2381	
298.15	.0659	.2391	
298.15	.0649	.2401	
298.15	.0639	.2413	
298.15	.0629	.2423	
308.15	.6177	.041	
308.15	.6046	.0422	
308.15	.5931	.044	
308.15	.5809	.0454	
308.15	.5681	.0468	
308.15	.5571	.0492	
308.15	.5433	.0511	
308.15	.5321	.0534	
308.15	.5182	.0559	
308.15	.506	.0579	
308.15	.495	.06	
308.15	.482	.0623	
308.15	.471	.065	
308.15	.4585	.0678	
308.15	.4488	.07	
308.15	.4382	.0723	
308.15	.4271	.0753	
308.15	.4188	.0781	
308.15	.408	.0805	
308.15	.3999	.0832	
308.15	.3878	.0851	
308.15	.3795	.0884	
308.15	.3721	.0904	
308.15	.3641	.0928	
308.15	.3534	.0956	
308.15	.3446	.0989	
308.15	.3352	.1008	
308.15	.3254	.104	
308.15	.3199	.1062	
308.15	.311	.1091	
308.15	.301	.1119	
308.15	.2911	.116	
308.15	.2816	.1196	
308.15	.2731	.1231	
308.15	.2654	.1269	
308.15	.2595	.1293	
308.15	.2504	.1327	
308.15	.2432	.1363	
308.15	.2368	.1387	
308.15	.2305	.142	
308.15	.2241	.1442	
308.15	.2183	.1475	
308.15	.2132	.1501	
308.15	.2054	.1522	
308.15	.2038	.1557	
308.15	.1976	.1582	
308.15	.1933	.1604	
308.15	.1896	.1626	
308.15	.1839	.1652	
308.15	.1804	.1679	
308.15	.1765	.1704	
308.15	.1726	.1722	
308.15	.1685	.1745	
308.15	.1649	.1767	
308.15	.1622	.1788	
308.15	.1595	.1806	
308.15	.1551	.1828	
308.15	.153	.1848	
308.15	.1491	.1867	
308.15	.1462	.1889	
308.15	.1433	.1905	
308.15	.1407	.1924	
308.15	.1386	.1944	
308.15	.1357	.1965	
308.15	.1332	.1984	
308.15	.1291	.2015	
308.15	.1254	.2043	
308.15	.1251	.2036	
308.15	.1228	.206	
308.15	.1195	.2079	
308.15	.118	.2083	
308.15	.1155	.2099	
308.15	.1137	.2096	
308.15	.1128	.2112	
308.15	.1122	.2127	
308.15	.108	.2141	
308.15	.1067	.2155	
308.15	.105	.2161	
308.15	.1018	.2191	
308.15	.1002	.2209	
308.15	.0996	.2214	
308.15	.0979	.2233	
308.15	.0963	.2244	
308.15	.091	.2257	
308.15	.0942	.2268	
308.15	.092	.2281	
308.15	.0918	.2291	
308.15	.0898	.2308	
308.15	.0884	.2318	
308.15	.0862	.2322	
308.15	.0858	.2337	
308.15	.0855	.2349	
308.15	.084	.2359	
308.15	.0832	.238	
308.15	.0823	.2381	
308.15	.0819	.2399	
