Measured thermophysical data. Effect of various substituents on benzene ring and their impact on volumetric, acoustic and transport properties of binary liquid mixtures with dimethylacetamide
Source: Fluid Phase Equilib., 2015, 10.1016/j.fluid.2015.03.048
Compound 1: N,N-dimethylacetamide, C4H9NO, purity 99%
Compound 2: 1,2-dichlorobenzene, C6H4Cl2, purity 99%
Compound 3: 1,3-dichlorobenzene, C6H4Cl2, purity 99%
Compound 4: 1,2,4-trichlorobenzene, C6H3Cl3, purity 99%
Compound 5: 2-chlorotoluene, C7H7Cl, purity 99%
Compound 6: 3-chlorotoluene, C7H7Cl, purity 99%
Compound 7: 4-chlorotoluene, C7H7Cl, purity 99%
Compound 8: 2-nitrotoluene, C7H7NO2, purity 99%
Compound 9: 3-nitrotoluene, C7H7NO2, purity 99%

System: N,N-dimethylacetamide; phases: Liquid
Property: Mass density, kg/m3 (Liquid); method: Pycnometric method
Temperature, K	Pressure, kPa	Mass density, kg/m3	uncertainty
303.15	101.325	941.35	4.70675

System: N,N-dimethylacetamide; phases: Liquid
Property: Viscosity, Pa*s (Liquid); method: Capillary tube (Ostwald; Ubbelohde) method
Temperature, K	Pressure, kPa	Viscosity, Pa*s	uncertainty
303.15	100	.000865	.000005

System: 1,2-dichlorobenzene; phases: Liquid
Property: Mass density, kg/m3 (Liquid); method: Pycnometric method
Temperature, K	Pressure, kPa	Mass density, kg/m3	uncertainty
303.15	101.325	1299.2	6.496

System: 1,2-dichlorobenzene; phases: Liquid
Property: Viscosity, Pa*s (Liquid); method: Capillary tube (Ostwald; Ubbelohde) method
Temperature, K	Pressure, kPa	Viscosity, Pa*s	uncertainty
303.15	100	.001301	.000005

System: 1,3-dichlorobenzene; phases: Liquid
Property: Mass density, kg/m3 (Liquid); method: Pycnometric method
Temperature, K	Pressure, kPa	Mass density, kg/m3	uncertainty
303.15	101.325	1277.16	6.3858

System: 1,3-dichlorobenzene; phases: Liquid
Property: Viscosity, Pa*s (Liquid); method: Capillary tube (Ostwald; Ubbelohde) method
Temperature, K	Pressure, kPa	Viscosity, Pa*s	uncertainty
303.15	100	.001023	.000005

System: 1,2,4-trichlorobenzene; phases: Liquid
Property: Mass density, kg/m3 (Liquid); method: Pycnometric method
Temperature, K	Pressure, kPa	Mass density, kg/m3	uncertainty
303.15	101.325	1442.12	7.2106

System: 1,2,4-trichlorobenzene; phases: Liquid
Property: Viscosity, Pa*s (Liquid); method: Capillary tube (Ostwald; Ubbelohde) method
Temperature, K	Pressure, kPa	Viscosity, Pa*s	uncertainty
303.15	100	.001611	.000005

System: 2-chlorotoluene; phases: Liquid
Property: Mass density, kg/m3 (Liquid); method: Pycnometric method
Temperature, K	Pressure, kPa	Mass density, kg/m3	uncertainty
303.15	101.325	1072.82	5.3641

System: 2-chlorotoluene; phases: Liquid
Property: Viscosity, Pa*s (Liquid); method: Capillary tube (Ostwald; Ubbelohde) method
Temperature, K	Pressure, kPa	Viscosity, Pa*s	uncertainty
303.15	100	.000884	.000005

System: 3-chlorotoluene; phases: Liquid
Property: Mass density, kg/m3 (Liquid); method: Pycnometric method
Temperature, K	Pressure, kPa	Mass density, kg/m3	uncertainty
293.15	101.325	1072.15	5.36075

System: 3-chlorotoluene; phases: Liquid
Property: Viscosity, Pa*s (Liquid); method: Capillary tube (Ostwald; Ubbelohde) method
Temperature, K	Pressure, kPa	Viscosity, Pa*s	uncertainty
303.15	100	.000782	.000005

System: 4-chlorotoluene; phases: Liquid
Property: Mass density, kg/m3 (Liquid); method: Pycnometric method
Temperature, K	Pressure, kPa	Mass density, kg/m3	uncertainty
298.15	101.325	1065.14	5.3257

System: 4-chlorotoluene; phases: Liquid
Property: Viscosity, Pa*s (Liquid); method: Capillary tube (Ostwald; Ubbelohde) method
Temperature, K	Pressure, kPa	Viscosity, Pa*s	uncertainty
303.15	100	.000902	.000005

System: 2-nitrotoluene; phases: Liquid
Property: Mass density, kg/m3 (Liquid); method: Pycnometric method
Temperature, K	Pressure, kPa	Mass density, kg/m3	uncertainty
303.15	101.325	1153.24	5.7662

System: 2-nitrotoluene; phases: Liquid
Property: Viscosity, Pa*s (Liquid); method: Capillary tube (Ostwald; Ubbelohde) method
Temperature, K	Pressure, kPa	Viscosity, Pa*s	uncertainty
303.15	100	.001908	.000005

System: 3-nitrotoluene; phases: Liquid
Property: Mass density, kg/m3 (Liquid); method: Pycnometric method
Temperature, K	Pressure, kPa	Mass density, kg/m3	uncertainty
303.15	101.325	1147.67	5.73835

System: 3-nitrotoluene; phases: Liquid
Property: Viscosity, Pa*s (Liquid); method: Capillary tube (Ostwald; Ubbelohde) method
Temperature, K	Pressure, kPa	Viscosity, Pa*s	uncertainty
303.15	100	.001775	.000005

System: 1,2-dichlorobenzene + N,N-dimethylacetamide; phases: Liquid
Fixed: Temperature, K = 303.15
Fixed: Pressure, kPa = 100
Property: Excess molar volume, m3/mol (Liquid); method: Direct dilatometry
Mole fraction of N,N-dimethylacetamide	Excess molar volume, m3/mol	uncertainty
.0805	-.000000036	.000000003
.1224	-.00000005	.000000003
.1605	-.00000006	.000000003
.2175	-.000000075	.000000003
.2611	-.000000084	.000000003
.3261	-.000000091	.000000003
.4319	-.000000092	.000000003
.4607	-.000000088	.000000003
.5105	-.000000081	.000000003
.6242	-.000000055	.000000003
.7019	-.000000034	.000000003
.7571	-.000000018	.000000003
.8105	-.000000005	.000000003
.8505	.000000002	.000000003
.9321	.000000007	.000000003

System: 1,2-dichlorobenzene + N,N-dimethylacetamide; phases: Liquid
Fixed: Temperature, K = 303.15
Fixed: Pressure, kPa = 100
Property: Mass density, kg/m3 (Liquid); method: Pycnometric method
Mole fraction of N,N-dimethylacetamide	Mass density, kg/m3	uncertainty
.0664	1275.7	6.3785
.1017	1263.13	6.31565
.1344	1251.49	6.25745
.1841	1233.77	6.16885
.2229	1219.92	6.0996
.2821	1198.76	5.9938
.4095	1152.99	5.76495
.4585	1135.37	5.67685
.5742	1093.68	5.4684
.6565	1064.03	5.32015
.7168	1042.36	5.2118
.7764	1020.96	5.1048
.822	1004.63	5.02315
.9177	970.54	4.8527

System: 1,2-dichlorobenzene + N,N-dimethylacetamide; phases: Liquid
Fixed: Temperature, K = 303.15
Fixed: Pressure, kPa = 100
Fixed: Frequency, MHz = 3
Property: Speed of sound, m/s (Liquid); method: Sing-around technique in a fixed-path interferometer
Mole fraction of N,N-dimethylacetamide	Speed of sound, m/s	uncertainty
.0664	1263	1
.1017	1276	1
.1344	1284	1
.1841	1298	1
.2229	1307	1
.2821	1319	1
.4095	1344	1
.4585	1353	1
.5742	1377	1
.6565	1393	1
.7168	1402	1
.7764	1413	1
.822	1419	1
.9177	1435	1

System: 1,2-dichlorobenzene + N,N-dimethylacetamide; phases: Liquid
Fixed: Temperature, K = 303.15
Fixed: Pressure, kPa = 100
Property: Viscosity, Pa*s (Liquid); method: Capillary tube (Ostwald; Ubbelohde) method
Mole fraction of N,N-dimethylacetamide	Viscosity, Pa*s	uncertainty
.0805	.001294	.000005
.1224	.00129	.000005
.1605	.001283	.000005
.2175	.001277	.000005
.2611	.001276	.000005
.3261	.001261	.000005
.4319	.001253	.000005
.4607	.00124	.000005
.5105	.001232	.000005
.6242	.001225	.000005
.7019	.001218	.000005
.7571	.001211	.000005
.8105	.001201	.000005
.8505	.001112	.000005
.9321	.000908	.000005

System: N,N-dimethylacetamide + 1,3-dichlorobenzene; phases: Liquid
Fixed: Temperature, K = 303.15
Fixed: Pressure, kPa = 100
Property: Excess molar volume, m3/mol (Liquid); method: Direct dilatometry
Mole fraction of N,N-dimethylacetamide	Excess molar volume, m3/mol	uncertainty
.1045	-.00000003	.000000003
.1525	-.000000045	.000000003
.1941	-.000000054	.000000003
.262	-.000000067	.000000003
.3235	-.000000075	.000000003
.4052	-.000000077	.000000003
.4672	-.000000073	.000000003
.522	-.000000066	.000000003
.6531	-.00000004	.000000003
.7245	-.000000025	.000000003
.7656	-.000000014	.000000003
.804	-.000000007	.000000003
.8631	.000000002	.000000003

System: N,N-dimethylacetamide + 1,3-dichlorobenzene; phases: Liquid
Fixed: Temperature, K = 303.15
Fixed: Pressure, kPa = 100
Property: Mass density, kg/m3 (Liquid); method: Pycnometric method
Mole fraction of N,N-dimethylacetamide	Mass density, kg/m3	uncertainty
.0879	1248.69	6.24345
.1294	1235.21	6.17605
.1659	1223.28	6.1164
.2267	1203.33	6.01665
.2831	1184.73	5.92365
.3601	1159.16	5.7958
.42	1139.1	5.6955
.4742	1120.88	5.6044
.6086	1075.37	5.37685
.6847	1049.44	5.2472
.7295	1034.11	5.17055
.7721	1019.55	5.09775
.8389	996.66	4.9833
.8967	969.13	4.84565
.969	945.84	4.7292

System: N,N-dimethylacetamide + 1,3-dichlorobenzene; phases: Liquid
Fixed: Temperature, K = 303.15
Fixed: Pressure, kPa = 100
Fixed: Frequency, MHz = 3
Property: Speed of sound, m/s (Liquid); method: Sing-around technique in a fixed-path interferometer
Mole fraction of N,N-dimethylacetamide	Speed of sound, m/s	uncertainty
.0879	1277	1
.1294	1284	1
.1659	1290	1
.2267	1301	1
.2831	1312	1
.3601	1326	1
.42	1337	1
.4742	1347	1
.6086	1372	1
.6847	1385	1
.7295	1393	1
.7721	1400	1
.8389	1413	1
.8967	1429	1
.969	1437	1

System: N,N-dimethylacetamide + 1,3-dichlorobenzene; phases: Liquid
Fixed: Temperature, K = 303.15
Fixed: Pressure, kPa = 100
Property: Viscosity, Pa*s (Liquid); method: Capillary tube (Ostwald; Ubbelohde) method
Mole fraction of N,N-dimethylacetamide	Viscosity, Pa*s	uncertainty
.1045	.001024	.000005
.1525	.001023	.000005
.1941	.001022	.000005
.262	.001021	.000005
.3235	.00102	.000005
.4052	.001019	.000005
.4672	.001018	.000005
.522	.001017	.000005
.6531	.001016	.000005
.7245	.001015	.000005
.7656	.001014	.000005
.804	.001013	.000005
.8631	.001011	.000005
.9131	.001007	.000005
.9743	.000952	.000005

System: 1,2,4-trichlorobenzene + N,N-dimethylacetamide; phases: Liquid
Fixed: Temperature, K = 303.15
Fixed: Pressure, kPa = 100
Property: Excess molar volume, m3/mol (Liquid); method: Direct dilatometry
Mole fraction of N,N-dimethylacetamide	Excess molar volume, m3/mol	uncertainty
.0921	.000000021	.000000003
.1341	.000000031	.000000003
.1815	.000000043	.000000003
.2241	.000000052	.000000003
.265	.000000061	.000000003
.3225	.000000074	.000000003
.4315	.000000095	.000000003
.476	.000000099	.000000003
.501	.0000001	.000000003
.5542	.000000097	.000000003
.6271	.000000088	.000000003
.705	.000000073	.000000003
.7892	.000000055	.000000003
.8041	.000000052	.000000003
.9282	.000000022	.000000003

System: 1,2,4-trichlorobenzene + N,N-dimethylacetamide; phases: Liquid
Fixed: Temperature, K = 303.15
Fixed: Pressure, kPa = 100
Property: Mass density, kg/m3 (Liquid); method: Pycnometric method
Mole fraction of N,N-dimethylacetamide	Mass density, kg/m3	uncertainty
.0697	1407.11	7.03555
.1026	1390.55	6.95275
.1407	1371.4	6.857
.1758	1353.78	6.7689
.2103	1336.46	6.6823
.2601	1311.41	6.55705
.3592	1261.63	6.30815
.4015	1240.42	6.2021
.4257	1228.27	6.14135
.4786	1201.84	6.0092
.5539	1164.24	5.8212
.6383	1122.13	5.61065
.7344	1074.16	5.3708
.7519	1065.39	5.32695
.9052	988.77	4.94385

System: 1,2,4-trichlorobenzene + N,N-dimethylacetamide; phases: Liquid
Fixed: Temperature, K = 303.15
Fixed: Pressure, kPa = 100
Fixed: Frequency, MHz = 3
Property: Speed of sound, m/s (Liquid); method: Sing-around technique in a fixed-path interferometer
Mole fraction of N,N-dimethylacetamide	Speed of sound, m/s	uncertainty
.0697	1289	1
.1026	1299	1
.1407	1308	1
.1758	1316	1
.2103	1325	1
.2601	1336	1
.3592	1354	1
.4015	1365	1
.4257	1368	1
.4786	1378	1
.5539	1391	1
.6383	1405	1
.7344	1419	1
.7519	1420	1
.9052	1440	1

System: 1,2,4-trichlorobenzene + N,N-dimethylacetamide; phases: Liquid
Fixed: Temperature, K = 303.15
Fixed: Pressure, kPa = 100
Property: Viscosity, Pa*s (Liquid); method: Capillary tube (Ostwald; Ubbelohde) method
Mole fraction of N,N-dimethylacetamide	Viscosity, Pa*s	uncertainty
.0921	.001608	.000005
.1341	.001578	.000005
.1815	.001523	.000005
.2241	.001474	.000005
.265	.001445	.000005
.3225	.001403	.000005
.4315	.001383	.000005
.476	.001353	.000005
.501	.001284	.000005
.5542	.001292	.000005
.6271	.001205	.000005
.705	.001197	.000005
.7892	.001152	.000005
.8041	.001096	.000005
.9282	.001088	.000005

System: 2-chlorotoluene + N,N-dimethylacetamide; phases: Liquid
Fixed: Temperature, K = 303.15
Fixed: Pressure, kPa = 100
Property: Excess molar volume, m3/mol (Liquid); method: Direct dilatometry
Mole fraction of N,N-dimethylacetamide	Excess molar volume, m3/mol	uncertainty
.106	-.00000002	.000000003
.1231	-.000000022	.000000003
.1854	-.00000003	.000000003
.2241	-.000000035	.000000003
.2672	-.000000039	.000000003
.3057	-.000000043	.000000003
.3762	-.000000049	.000000003
.4095	-.000000051	.000000003
.5255	-.000000055	.000000003
.561	-.000000055	.000000003
.6052	-.000000052	.000000003
.7214	-.000000042	.000000003
.7712	-.000000036	.000000003
.8021	-.000000032	.000000003
.8795	-.000000023	.000000003

System: 2-chlorotoluene + N,N-dimethylacetamide; phases: Liquid
Fixed: Temperature, K = 303.15
Fixed: Pressure, kPa = 100
Property: Mass density, kg/m3 (Liquid); method: Pycnometric method
Mole fraction of N,N-dimethylacetamide	Mass density, kg/m3	uncertainty
.1	1059.98	5.2999
.1527	1053.19	5.26595
.1862	1048.87	5.24435
.2241	1043.95	5.21975
.2585	1039.48	5.1974
.3232	1031.07	5.15535
.3545	1026.99	5.13495
.4673	1012.24	5.0612
.503	1007.54	5.0377
.5483	1001.55	5.00775
.6722	985.14	4.9257
.7275	977.79	4.88895
.7625	973.13	4.86565
.8525	961.13	4.80565

System: 2-chlorotoluene + N,N-dimethylacetamide; phases: Liquid
Fixed: Temperature, K = 303.15
Fixed: Pressure, kPa = 100
Fixed: Frequency, MHz = 3
Property: Speed of sound, m/s (Liquid); method: Sing-around technique in a fixed-path interferometer
Mole fraction of N,N-dimethylacetamide	Speed of sound, m/s	uncertainty
.1	1305	1
.1527	1316	1
.1862	1322	1
.2241	1330	1
.2585	1337	1
.3232	1350	1
.3545	1356	1
.4673	1378	1
.503	1384	1
.5483	1391	1
.6722	1407	1
.7275	1415	1
.7625	1416	1
.8525	1428	1

System: 2-chlorotoluene + N,N-dimethylacetamide; phases: Liquid
Fixed: Temperature, K = 303.15
Fixed: Pressure, kPa = 100
Property: Viscosity, Pa*s (Liquid); method: Capillary tube (Ostwald; Ubbelohde) method
Mole fraction of N,N-dimethylacetamide	Viscosity, Pa*s	uncertainty
.106	.000884	.000005
.1231	.000883	.000005
.1854	.000882	.000005
.2241	.000881	.000005
.2672	.00088	.000005
.3057	.000879	.000005
.3762	.000878	.000005
.4095	.000877	.000005
.5255	.000876	.000005
.561	.000875	.000005
.6052	.000874	.000005
.7214	.000873	.000005
.7712	.000872	.000005
.8021	.000871	.000005
.8795	.000869	.000005

System: 3-chlorotoluene + N,N-dimethylacetamide; phases: Liquid
Fixed: Temperature, K = 303.15
Fixed: Pressure, kPa = 100
Property: Excess molar volume, m3/mol (Liquid); method: Direct dilatometry
Mole fraction of N,N-dimethylacetamide	Excess molar volume, m3/mol	uncertainty
.0838	-.00000001	.000000003
.1242	-.000000014	.000000003
.1811	-.00000002	.000000003
.2107	-.000000023	.000000003
.2702	-.000000027	.000000003
.3152	-.00000003	.000000003
.3897	-.000000035	.000000003
.4165	-.000000036	.000000003
.5035	-.000000037	.000000003
.5465	-.000000036	.000000003
.6251	-.000000034	.000000003
.7152	-.000000028	.000000003
.7517	-.000000025	.000000003
.8204	-.000000019	.000000003
.9345	-.000000009	.000000003

System: 3-chlorotoluene + N,N-dimethylacetamide; phases: Liquid
Fixed: Temperature, K = 303.15
Fixed: Pressure, kPa = 100
Property: Mass density, kg/m3 (Liquid); method: Pycnometric method
Mole fraction of N,N-dimethylacetamide	Mass density, kg/m3	uncertainty
.0671	1063.49	5.31745
.1003	1059.19	5.29595
.1481	1053.01	5.26505
.1735	1049.73	5.24865
.2255	1042.98	5.2149
.2658	1037.75	5.18875
.3343	1028.85	5.14425
.3595	1025.57	5.12785
.4436	1014.58	5.0729
.4865	1008.96	5.0448
.5673	998.38	4.9919
.6638	985.69	4.92845
.7042	980.38	4.9019
.7822	970.1	4.8505
.9182	952.18	4.7609

System: 3-chlorotoluene + N,N-dimethylacetamide; phases: Liquid
Fixed: Temperature, K = 303.15
Fixed: Pressure, kPa = 100
Fixed: Frequency, MHz = 3
Property: Speed of sound, m/s (Liquid); method: Sing-around technique in a fixed-path interferometer
Mole fraction of N,N-dimethylacetamide	Speed of sound, m/s	uncertainty
.0671	1298	1
.1003	1307	1
.1481	1317	1
.1735	1322	1
.2255	1333	1
.2658	1343	1
.3343	1356	1
.3595	1362	1
.4436	1378	1
.4865	1385	1
.5673	1399	1
.6638	1412	1
.7042	1416	1
.7822	1424	1
.9182	1440	1

System: 3-chlorotoluene + N,N-dimethylacetamide; phases: Liquid
Fixed: Temperature, K = 303.15
Fixed: Pressure, kPa = 100
Property: Viscosity, Pa*s (Liquid); method: Capillary tube (Ostwald; Ubbelohde) method
Mole fraction of N,N-dimethylacetamide	Viscosity, Pa*s	uncertainty
.0838	.000783	.000005
.1242	.000786	.000005
.1811	.000789	.000005
.2107	.000805	.000005
.2702	.000811	.000005
.3152	.000817	.000005
.3897	.000823	.000005
.4165	.000828	.000005
.5035	.000832	.000005
.5465	.000837	.000005
.6251	.000841	.000005
.7152	.000846	.000005
.7517	.00085	.000005
.8204	.000855	.000005
.9345	.00086	.000005

System: 4-chlorotoluene + N,N-dimethylacetamide; phases: Liquid
Fixed: Temperature, K = 303.15
Fixed: Pressure, kPa = 100
Property: Excess molar volume, m3/mol (Liquid); method: Direct dilatometry
Mole fraction of N,N-dimethylacetamide	Excess molar volume, m3/mol	uncertainty
.0876	-.000000006	.000000003
.1205	-.00000001	.000000003
.1564	-.000000012	.000000003
.2145	-.000000016	.000000003
.2534	-.000000019	.000000003
.3011	-.000000022	.000000003
.374	-.000000026	.000000003
.495	-.000000029	.000000003
.5275	-.000000029	.000000003
.5543	-.000000028	.000000003
.6041	-.000000027	.000000003
.7047	-.000000022	.000000003
.762	-.000000018	.000000003
.8241	-.000000014	.000000003
.8806	-.00000001	.000000003

System: 4-chlorotoluene + N,N-dimethylacetamide; phases: Liquid
Fixed: Temperature, K = 303.15
Fixed: Pressure, kPa = 100
Property: Mass density, kg/m3 (Liquid); method: Pycnometric method
Mole fraction of N,N-dimethylacetamide	Mass density, kg/m3	uncertainty
.0699	1056.58	5.2829
.0969	1053.3	5.2665
.1267	1049.63	5.24815
.1767	1043.58	5.2179
.2099	1039.44	5.1972
.2522	1034.25	5.17125
.3187	1026.08	5.1304
.4342	1011.83	5.05915
.4664	1007.85	5.03925
.4933	1004.51	5.02255
.5443	998.18	4.9909
.6513	984.88	4.9244
.7148	976.97	4.88485
.7858	968.12	4.8406
.8524	959.81	4.79905

System: 4-chlorotoluene + N,N-dimethylacetamide; phases: Liquid
Fixed: Temperature, K = 303.15
Fixed: Pressure, kPa = 100
Fixed: Frequency, MHz = 3
Property: Speed of sound, m/s (Liquid); method: Sing-around technique in a fixed-path interferometer
Mole fraction of N,N-dimethylacetamide	Speed of sound, m/s	uncertainty
.0699	1286	1
.0969	1294	1
.1267	1303	1
.1767	1317	1
.2099	1326	1
.2522	1339	1
.3187	1359	1
.4342	1385	1
.4664	1392	1
.4933	1397	1
.5443	1403	1
.6513	1415	1
.7148	1420	1
.7858	1424	1
.8524	1425	1

System: 4-chlorotoluene + N,N-dimethylacetamide; phases: Liquid
Fixed: Temperature, K = 303.15
Fixed: Pressure, kPa = 100
Property: Viscosity, Pa*s (Liquid); method: Capillary tube (Ostwald; Ubbelohde) method
Mole fraction of N,N-dimethylacetamide	Viscosity, Pa*s	uncertainty
.0876	.000897	.000005
.1205	.000895	.000005
.1564	.000893	.000005
.2145	.00089	.000005
.2534	.000888	.000005
.3011	.000886	.000005
.374	.000884	.000005
.495	.000882	.000005
.5275	.00088	.000005
.5543	.000879	.000005
.6041	.000878	.000005
.7047	.000876	.000005
.762	.000874	.000005
.8241	.000872	.000005
.8806	.00087	.000005

System: 2-nitrotoluene + N,N-dimethylacetamide; phases: Liquid
Fixed: Temperature, K = 303.15
Fixed: Pressure, kPa = 100
Property: Excess molar volume, m3/mol (Liquid); method: Direct dilatometry
Mole fraction of N,N-dimethylacetamide	Excess molar volume, m3/mol	uncertainty
.1025	.000000014	.000000003
.1527	.00000002	.000000003
.1835	.000000025	.000000003
.2165	.000000028	.000000003
.2775	.000000035	.000000003
.3067	.00000004	.000000003
.3641	.000000047	.000000003
.4211	.000000053	.000000003
.4727	.000000058	.000000003
.5262	.00000006	.000000003
.6053	.000000058	.000000003
.7204	.000000045	.000000003
.8162	.000000032	.000000003
.895	.00000002	.000000003
.967	.000000007	.000000003

System: 2-nitrotoluene + N,N-dimethylacetamide; phases: Liquid
Fixed: Temperature, K = 303.15
Fixed: Pressure, kPa = 100
Property: Mass density, kg/m3 (Liquid); method: Pycnometric method
Mole fraction of N,N-dimethylacetamide	Mass density, kg/m3	uncertainty
.0824	1135.81	5.67905
.124	1126.98	5.6349
.1501	1121.45	5.60725
.1784	1115.46	5.5773
.2318	1104.13	5.52065
.2579	1098.58	5.4929
.3103	1087.46	5.4373
.3637	1076.12	5.3806
.4133	1065.58	5.3279
.466	1054.4	5.272
.5465	1037.36	5.1868
.6694	1011.4	5.057
.7773	988.58	4.9429
.8701	968.9	4.8445
.9584	950.18	4.7509

System: 2-nitrotoluene + N,N-dimethylacetamide; phases: Liquid
Fixed: Temperature, K = 303.15
Fixed: Pressure, kPa = 100
Fixed: Frequency, MHz = 3
Property: Speed of sound, m/s (Liquid); method: Sing-around technique in a fixed-path interferometer
Mole fraction of N,N-dimethylacetamide	Speed of sound, m/s	uncertainty
.0824	2046	1
.124	2006	1
.1501	1978	1
.1784	1956	1
.2318	1897	1
.2579	1874	1
.3103	1817	1
.3637	1773	1
.4133	1734	1
.466	1696	1
.5465	1650	1
.6694	1592	1
.7773	1547	1
.8701	1506	1
.9584	1463	1

System: 2-nitrotoluene + N,N-dimethylacetamide; phases: Liquid
Fixed: Temperature, K = 303.15
Fixed: Pressure, kPa = 100
Property: Viscosity, Pa*s (Liquid); method: Capillary tube (Ostwald; Ubbelohde) method
Mole fraction of N,N-dimethylacetamide	Viscosity, Pa*s	uncertainty
.1025	.001905	.000005
.1527	.001877	.000005
.1835	.001857	.000005
.2165	.001835	.000005
.2775	.001788	.000005
.3067	.001763	.000005
.3641	.001715	.000005
.4211	.001663	.000005
.4727	.001613	.000005
.5262	.001559	.000005
.6053	.001474	.000005
.7204	.001336	.000005
.8162	.001203	.000005
.895	.001074	.000005
.967	.000937	.000005

System: 3-nitrotoluene + N,N-dimethylacetamide; phases: Liquid
Fixed: Temperature, K = 303.15
Fixed: Pressure, kPa = 100
Property: Excess molar volume, m3/mol (Liquid); method: Direct dilatometry
Mole fraction of N,N-dimethylacetamide	Excess molar volume, m3/mol	uncertainty
.0851	.000000018	.000000003
.1552	.00000003	.000000003
.242	.000000042	.000000003
.2931	.000000049	.000000003
.3451	.000000054	.000000003
.4062	.000000059	.000000003
.455	.000000062	.000000003
.5191	.000000065	.000000003
.5532	.000000066	.000000003
.603	.000000066	.000000003
.6512	.000000065	.000000003
.7125	.000000063	.000000003
.7561	.000000059	.000000003
.8151	.000000051	.000000003
.9727	.000000012	.000000003

System: 3-nitrotoluene + N,N-dimethylacetamide; phases: Liquid
Fixed: Temperature, K = 303.15
Fixed: Pressure, kPa = 100
Property: Mass density, kg/m3 (Liquid); method: Pycnometric method
Mole fraction of N,N-dimethylacetamide	Mass density, kg/m3	uncertainty
.0678	1133.63	5.66815
.1256	1121.68	5.6084
.1998	1106.36	5.5318
.2449	1097.04	5.4852
.291	1087.34	5.4367
.3485	1075.63	5.37815
.395	1066.03	5.33015
.4577	1053.07	5.26535
.4919	1046.01	5.23005
.5429	1035.49	5.17745
.5935	1025.05	5.12525
.6596	1011.39	5.05695
.708	1001.42	5.0071
.7751	987.57	4.93785
.9654	948.44	4.7422

System: 3-nitrotoluene + N,N-dimethylacetamide; phases: Liquid
Fixed: Temperature, K = 303.15
Fixed: Pressure, kPa = 100
Fixed: Frequency, MHz = 3
Property: Speed of sound, m/s (Liquid); method: Sing-around technique in a fixed-path interferometer
Mole fraction of N,N-dimethylacetamide	Speed of sound, m/s	uncertainty
.0678	2077	1
.1256	2039	1
.1998	1958	1
.2449	1906	1
.291	1857	1
.3485	1802	1
.395	1763	1
.4577	1729	1
.4919	1699	1
.5429	1676	1
.5935	1656	1
.6596	1632	1
.708	1616	1
.7751	1589	1
.9654	1473	1

System: 3-nitrotoluene + N,N-dimethylacetamide; phases: Liquid
Fixed: Temperature, K = 303.15
Fixed: Pressure, kPa = 100
Property: Viscosity, Pa*s (Liquid); method: Capillary tube (Ostwald; Ubbelohde) method
Mole fraction of N,N-dimethylacetamide	Viscosity, Pa*s	uncertainty
.0851	.00176	.000005
.1552	.001752	.000005
.242	.00171	.000005
.2931	.001686	.000005
.3451	.001646	.000005
.4062	.001603	.000005
.455	.001568	.000005
.5191	.001519	.000005
.5532	.001492	.000005
.603	.001451	.000005
.6512	.001408	.000005
.7125	.001348	.000005
.7561	.0013	.000005
.8151	.001224	.000005
.9727	.000935	.000005
