Measured thermophysical data. Introduction of the amine group at cycloaliphatic hydrocarbon (c-CHNH2) for the modified UNIFAC (Dortmund) model and validation in multicomponent systems containing cyclohexylamine
Source: Fluid Phase Equilib., 2012, 10.1016/j.fluid.2011.09.010
Compound 1: nonane, C9H20, purity 99%
Compound 2: cyclohexane, C6H12, purity 99.5%
Compound 3: methylcyclohexane, C7H14, purity 99%
Compound 4: ethylcyclohexane, C8H16, purity 98%
Compound 5: cyclohexaneamine, C6H13N

System: cyclohexaneamine + nonane; phases: Liquid, Gas
Property: Mole fraction of nonane (Liquid); method: Density calibration data
Temperature, K	Pressure, kPa	Mole fraction of nonane	uncertainty
363.15	25.58	0	.005
363.15	25.59	.0281	.005
363.15	25.34	.0748	.005
363.15	25.53	.0993	.005
363.15	25.03	.2025	.005
363.15	24.13	.314	.005
363.15	23.53	.4187	.005
363.15	22.5	.5118	.005
363.15	22.1	.564	.005
363.15	20.45	.7	.005
363.15	19.15	.8004	.005
363.15	17.97	.839	.005
363.15	17.38	.8967	.005
363.15	14.7	1	.005
393.15	67.64	0	.005
393.15	68.43	.0316	.005
393.15	67.9	.0659	.005
393.15	68.39	.0979	.005
393.15	66.62	.2028	.005
393.15	64.87	.3099	.005
393.15	62.75	.4185	.005
393.15	60.53	.4985	.005
393.15	59.04	.564	.005
393.15	56.45	.6674	.005
393.15	56.98	.6442	.005
393.15	50.61	.8125	.005
393.15	49.45	.837	.005
393.15	46.9	.9014	.005
393.15	41.97	1	.005

System: cyclohexaneamine + nonane; phases: Gas, Liquid
Property: Mole fraction of nonane (Gas); method: Density calibration data
Temperature, K	Pressure, kPa	Mole fraction of nonane	uncertainty
363.15	25.58	0	.005
363.15	25.59	.0211	.005
363.15	25.34	.0559	.005
363.15	25.53	.0792	.005
363.15	25.03	.1398	.005
363.15	24.13	.2318	.005
363.15	23.53	.2733	.005
363.15	22.5	.3543	.005
363.15	22.1	.3961	.005
363.15	20.45	.5125	.005
363.15	19.15	.6199	.005
363.15	17.97	.6867	.005
363.15	17.38	.7574	.005
363.15	14.7	1	.005
393.15	67.64	0	.005
393.15	68.43	.0229	.005
393.15	67.9	.0547	.005
393.15	68.39	.0801	.005
393.15	66.62	.142	.005
393.15	64.87	.239	.005
393.15	62.75	.2899	.005
393.15	60.53	.3672	.005
393.15	59.04	.4316	.005
393.15	56.45	.5058	.005
393.15	56.98	.4939	.005
393.15	50.61	.6765	.005
393.15	49.45	.7151	.005
393.15	46.9	.8139	.005
393.15	41.97	1	.005

System: methylcyclohexane + cyclohexaneamine; phases: Gas, Liquid
Property: Mole fraction of methylcyclohexane (Gas); method: Chromatography
Temperature, K	Pressure, kPa	Mole fraction of methylcyclohexane	uncertainty
333.15	7.79	0	.005
333.15	11.55	.4226	.005
333.15	13.4	.5379	.005
333.15	17.91	.7147	.005
333.15	20.95	.806	.005
333.15	23.15	.869	.005
333.15	24.78	.9103	.005
333.15	25.78	.9594	.005
333.15	27.14	1	.005
363.15	25.54	0	.005
363.15	34.05	.3251	.005
363.15	39.39	.4667	.005
363.15	50.22	.6567	.005
363.15	57.77	.7596	.005
363.15	63.7	.8424	.005
363.15	67.35	.8965	.005
363.15	71.01	.9508	.005
363.15	74.02	1	.005

System: methylcyclohexane + cyclohexaneamine; phases: Liquid, Gas
Property: Mole fraction of methylcyclohexane (Liquid); method: Chromatography
Temperature, K	Pressure, kPa	Mole fraction of methylcyclohexane	uncertainty
333.15	7.79	0	.005
333.15	11.55	.1176	.005
333.15	13.4	.1744	.005
333.15	17.91	.349	.005
333.15	20.95	.5025	.005
333.15	23.15	.6718	.005
333.15	24.78	.792	.005
333.15	25.78	.9073	.005
333.15	27.14	1	.005
363.15	25.54	0	.005
363.15	34.05	.1092	.005
363.15	39.39	.1882	.005
363.15	50.22	.351	.005
363.15	57.77	.5043	.005
363.15	63.7	.6637	.005
363.15	67.35	.7852	.005
363.15	71.01	.9074	.005
363.15	74.02	1	.005

System: methylcyclohexane + cyclohexaneamine; phases: Liquid
Fixed: Pressure, kPa = 101.3
Fixed: Mole fraction of cyclohexaneamine = 0
Property: Activity coefficient of cyclohexaneamine (Liquid); method: Differential ebulliometry
Temperature, K	Activity coefficient of cyclohexaneamine	uncertainty
353.15	1.868	.11208
373.15	1.636	.09816
393.15	1.482	.08892

System: methylcyclohexane + cyclohexaneamine; phases: Liquid
Fixed: Pressure, kPa = 101.3
Fixed: Mole fraction of methylcyclohexane = 0
Property: Activity coefficient of methylcyclohexane (Liquid); method: Differential ebulliometry
Temperature, K	Activity coefficient of methylcyclohexane	uncertainty
333.15	1.186	.07116
353.15	1.259	.07554
373.15	1.245	.0747

System: cyclohexaneamine + cyclohexane; phases: Liquid
Fixed: Pressure, kPa = 101.3
Fixed: Mole fraction of cyclohexane = 0
Property: Activity coefficient of cyclohexane (Liquid); method: Differential ebulliometry
Temperature, K	Activity coefficient of cyclohexane	uncertainty
373.15	1.243	.07458
393.15	1.183	.07098

System: cyclohexaneamine + cyclohexane; phases: Liquid
Fixed: Pressure, kPa = 101.3
Fixed: Mole fraction of cyclohexaneamine = 0
Property: Activity coefficient of cyclohexaneamine (Liquid); method: Differential ebulliometry
Temperature, K	Activity coefficient of cyclohexaneamine	uncertainty
333.15	1.773	.10638
348.15	1.485	.0891

System: cyclohexaneamine + ethylcyclohexane; phases: Liquid
Fixed: Pressure, kPa = 101.3
Fixed: Mole fraction of cyclohexaneamine = 0
Property: Activity coefficient of cyclohexaneamine (Liquid); method: Differential ebulliometry
Temperature, K	Activity coefficient of cyclohexaneamine	uncertainty
353.15	1.524	.09144
373.15	1.448	.08688
393.15	1.36	.0816

System: cyclohexaneamine + ethylcyclohexane; phases: Liquid
Fixed: Pressure, kPa = 101.3
Fixed: Mole fraction of ethylcyclohexane = 0
Property: Activity coefficient of ethylcyclohexane (Liquid); method: Differential ebulliometry
Temperature, K	Activity coefficient of ethylcyclohexane	uncertainty
353.15	1.567	.09402
373.15	1.453	.08718
393.15	1.417	.08502
