Measured thermophysical data. Isothermal vapor liquid equilibrium at 333.15K, excess molar volumes and  refractive indices at 298.15K for mixtures of tert-amyl methyl  ether + ethanol + 2,2,4-trimethylpentane
Source: Fluid Phase Equilib., 2009, 10.1016/j.fluid.2009.03.026
Compound 1: ether, methyl tert-pentyl, C6H14O
Compound 2: ethanol, C2H6O
Compound 3: 2,2,4-trimethylpentane, C8H18

System: ethanol + ether, methyl tert-pentyl; phases: Liquid, Gas
Fixed: Temperature, K = 333.15
Property: Vapor or sublimation pressure, kPa (Liquid); method: headspace gas chromatography
Mole fraction of ether, methyl tert-pentyl	Vapor or sublimation pressure, kPa	uncertainty
.0398	48.96	
.0598	49.85	
.0799	50.65	
.1196	52.01	
.1699	53.36	
.2295	54.54	
.2891	55.35	
.3496	55.88	
.4105	56.15	
.4693	56.2	
.5287	56.06	
.59	55.7	
.6496	55.13	
.7089	54.3	
.7693	53.12	
.8303	51.45	
.8773	49.74	
.92	47.76	
.9397	46.67	
.9589	45.49	
.9792	44.09	

System: ethanol + ether, methyl tert-pentyl; phases: Gas, Liquid
Fixed: Temperature, K = 333.15
Property: Vapor or sublimation pressure, kPa (Gas); method: headspace gas chromatography
Mole fraction of ether, methyl tert-pentyl	Vapor or sublimation pressure, kPa	uncertainty
.0809	48.96	
.1125	49.85	
.1438	50.65	
.1961	52.01	
.247	53.36	
.3002	54.54	
.3489	55.35	
.3912	55.88	
.4293	56.15	
.4644	56.2	
.4974	56.06	
.5322	55.7	
.5673	55.13	
.6069	54.3	
.6528	53.12	
.7108	51.45	
.7601	49.74	
.8215	47.76	
.854	46.67	
.8941	45.49	
.9425	44.09	

System: 2,2,4-trimethylpentane + ether, methyl tert-pentyl; phases: Liquid, Gas
Fixed: Temperature, K = 333.15
Property: Vapor or sublimation pressure, kPa (Liquid); method: headspace gas chromatography
Mole fraction of ether, methyl tert-pentyl	Vapor or sublimation pressure, kPa	uncertainty
.0203	29.03	
.0409	29.46	
.0606	29.85	
.0795	30.23	
.1191	31	
.1695	31.89	
.229	32.94	
.2889	33.92	
.3499	34.89	
.4098	35.8	
.4691	36.68	
.5293	37.5	
.5904	38.29	
.6496	39.06	
.7099	39.78	
.7699	40.46	
.8297	41.11	
.8793	41.61	
.9191	41.98	
.9402	42.16	
.9593	42.3	
.9794	42.41	

System: 2,2,4-trimethylpentane + ether, methyl tert-pentyl; phases: Gas, Liquid
Fixed: Temperature, K = 333.15
Property: Vapor or sublimation pressure, kPa (Gas); method: headspace gas chromatography
Mole fraction of ether, methyl tert-pentyl	Vapor or sublimation pressure, kPa	uncertainty
.0345	29.03	
.0684	29.46	
.099	29.85	
.1284	30.23	
.1853	31	
.2507	31.89	
.3251	32.94	
.3924	33.92	
.4576	34.89	
.5173	35.8	
.574	36.68	
.6259	37.5	
.6777	38.29	
.7277	39.06	
.7753	39.78	
.822	40.46	
.8682	41.11	
.9055	41.61	
.9359	41.98	
.9516	42.16	
.9662	42.3	
.9817	42.41	

System: ethanol + 2,2,4-trimethylpentane + ether, methyl tert-pentyl; phases: Liquid, Gas
Fixed: Temperature, K = 333.15
Property: Vapor or sublimation pressure, kPa (Liquid); method: headspace gas chromatography
Mole fraction of ether, methyl tert-pentyl	Mole fraction of ethanol	Vapor or sublimation pressure, kPa	uncertainty
.0539	.5436	65.67	
.0435	.4538	65.2	
.0358	.3613	64.6	
.026	.2714	63.67	
.0184	.1809	62.05	
.162	.4295	66.26	
.1073	.2845	64.87	
.0802	.2121	63.6	
.0261	.0712	55.8	
.2265	.2586	64.28	
.1811	.2045	63.25	
.134	.1527	61.75	
.0893	.1008	59.04	
.3215	.156	60.5	
.2548	.1253	59.48	
.1901	.0931	57.79	
.0619	.0288	48.43	
.3311	.0421	52.14	
.2455	.0302	50.46	
.1624	.0183	47.62	
.0356	.6031	65.3	
.0271	.7021	64.83	
.0172	.8021	63.4	
.1345	.5088	66.46	
.1072	.6085	66.31	
.0807	.7069	65.57	
.0264	.9032	59.14	
.2739	.4149	65.79	
.2278	.5148	66.22	
.1801	.6154	66.02	
.1339	.7129	65.11	
.0889	.8095	62.99	
.3893	.4215	64.17	
.3219	.5213	64.65	
.2553	.6205	64.42	
.1904	.7176	63.42	
.0621	.9077	56.88	
.5064	.43	60.31	
.4194	.5275	60.93	
.3316	.6265	60.85	
.2467	.7223	60.1	
.1618	.8177	58.43	
.3712	.0622	54.13	
.4703	.0513	52.88	
.571	.0417	51.75	
.6733	.033	50.49	
.3716	.1874	61.31	
.469	.159	59.32	
.5692	.1297	56.97	
.6721	.0994	54.21	
.3707	.3143	64.09	
.4688	.2654	62.1	
.5694	.2156	59.49	
.6738	.163	56.18	
.7782	.1113	52.33	
.4688	.3721	62.59	
.5689	.3016	60.12	
.6739	.2279	56.88	
.5693	.388	58.66	
.673	.2945	56.2	
.7798	.1977	52.86	

System: ethanol + 2,2,4-trimethylpentane + ether, methyl tert-pentyl; phases: Gas, Liquid
Fixed: Temperature, K = 333.15
Property: Vapor or sublimation pressure, kPa (Gas); method: headspace gas chromatography
Mole fraction of ether, methyl tert-pentyl	Mole fraction of ethanol	Vapor or sublimation pressure, kPa	uncertainty
.0721	.577	65.67	
.0595	.5681	65.2	
.0491	.5544	64.6	
.0383	.5439	63.67	
.0293	.5146	62.05	
.1633	.5101	66.26	
.1275	.4933	64.87	
.1076	.4799	63.6	
.0507	.4222	55.8	
.2168	.4331	64.28	
.1948	.4217	63.25	
.1692	.418	61.75	
.135	.3962	59.04	
.2919	.3452	60.5	
.2666	.3401	59.48	
.236	.3337	57.79	
.1355	.2737	48.43	
.3773	.1798	52.14	
.3419	.1681	50.46	
.2938	.1459	47.62	
.0508	.5975	65.3	
.0389	.6295	64.83	
.0272	.6702	63.4	
.1431	.5354	66.46	
.1211	.5693	66.31	
.101	.604	65.57	
.047	.752	59.14	
.2241	.4789	65.79	
.2018	.519	66.22	
.1778	.5529	66.02	
.151	.5988	65.11	
.1164	.677	62.99	
.2859	.4687	64.17	
.2577	.5091	64.65	
.2289	.5591	64.42	
.1977	.6179	63.42	
.103	.7927	56.88	
.3693	.4995	60.31	
.3293	.553	60.93	
.2966	.6078	60.85	
.2523	.6733	60.1	
.1949	.7511	58.43	
.3662	.2358	54.13	
.4197	.19	52.88	
.4863	.1325	51.75	
.5499	.0971	50.49	
.311	.3486	61.31	
.3676	.3021	59.32	
.4301	.255	56.97	
.5109	.2002	54.21	
.2882	.4169	64.09	
.3439	.3747	62.1	
.406	.3342	59.49	
.4815	.2834	56.18	
.577	.2246	52.33	
.3436	.4399	62.59	
.4097	.3958	60.12	
.4761	.3516	56.88	
.4252	.4849	58.66	
.4812	.4384	56.2	
.5758	.3647	52.86	

System: ethanol + 2,2,4-trimethylpentane + ether, methyl tert-pentyl; phases: Liquid
Fixed: Temperature, K = 298.15
Property: Refractive index (Na D-line) (Liquid); method: Other
Mole fraction of ether, methyl tert-pentyl	Mole fraction of ethanol	Mass density, kg/m3	Refractive index (Na D-line)	uncertainty
.0698	.5332	722.07	1.37921	.00005
.0578	.4459	713.61	1.38123	.00005
.0468	.3608	706.78	1.38307	.00005
.0349	.2681	700.49	1.38491	.00005
.0225	.1796	695.48	1.38645	.00005
.2063	.4062	726.43	1.38177	.00005
.1718	.3403	717.56	1.38316	.00005
.138	.2739	709.91	1.38452	.00005
.1037	.2072	703.18	1.38558	.00005
.0347	.0686	692.35	1.38836	.00005
.336	.2837	729.35	1.3839	.00005
.2811	.2404	720.6	1.3847	.00005
.2264	.1953	712.79	1.3856	.00005
.172	.1454	705.54	1.38636	.00005
.1153	.0969	699	1.38751	.00005
.3874	.1411	722.92	1.386	.00005
.3141	.1136	715	1.38662	.00005
.2386	.0873	707.61	1.38713	.00005
.081	.0289	694.11	1.38843	.00005
.3983	.0366	716.9	1.38712	.00005
.3034	.0284	709.33	1.38757	.00005
.205	.019	702.01	1.38803	.00005
.0471	.5957	725.12	1.37748	.00005
.0352	.6962	734.42	1.37432	.00005
.0233	.7973	746.6	1.37002	.00005
.1718	.4876	730.07	1.38002	.00005
.138	.5879	736.52	1.37745	.00005
.1051	.6886	744.35	1.37427	.00005
.0349	.8958	767.31	1.36579	.00005
.3346	.3799	738.28	1.38206	.00005
.2816	.479	742.8	1.38	.00005
.2272	.5796	747.99	1.37752	.00005
.1714	.6826	754.22	1.37452	.00005
.1153	.7866	762	1.37066	.00005
.4604	.3722	752.17	1.38195	.00005
.3877	.4711	755.59	1.37998	.00005
.3134	.5726	759.69	1.37708	.00005
.2379	.6756	764.2	1.37463	.00005
.0813	.8892	776.41	1.36848	.00005
.5802	.3652	766.31	1.38186	.00005
.4905	.4631	768.58	1.37881	.00005
.3979	.565	771.3	1.37666	.00005
.3031	.6685	774.12	1.37475	.00005
.205	.7757	777.23	1.37219	.00005
.4404	.0543	721.35	1.38684	.00005
.5399	.0466	728.92	1.38664	.00005
.6362	.0391	736.56	1.38644	.00005
.7345	.0242	744.1	1.38633	.00005
.8253	.0166	751.78	1.3862	.00005
.4401	.1669	729.56	1.38546	.00005
.5404	.1378	736.41	1.38557	.00005
.6388	.1082	742.97	1.38565	.00005
.7346	.0783	749.29	1.3858	.00005
.9146	.0251	761.43	1.38592	.00005
.4395	.2808	739.76	1.38365	.00005
.5406	.2296	745.19	1.38429	.00005
.7349	.1317	755.02	1.38526	.00005
.8256	.0858	759.27	1.38545	.00005
.5408	.3211	755.52	1.38244	.00005
.6383	.253	758.64	1.38368	.00005
.7337	.1863	761.19	1.38459	.00005
.9148	.0591	765.38	1.38563	.00005
.6391	.3244	768.1	1.3826	.00005
.7337	.2393	768.05	1.38372	.00005
.8254	.1577	768.03	1.38468	.00005
