Measured thermophysical data. Measurements of isobaric heat capacities for HFE-7000 and HFE-7100 at different temperatures and pressures
Source: Fluid Phase Equilib., 2016, 10.1016/j.fluid.2016.06.024
Compound 1: 1,1,1,2,2,3,3-heptafluoro-3-methoxypropane, C4H3F7O, purity 99.5%
Compound 2: methyl nonafluoroisobutyl ether, C5H3F9O, purity 99.5%
Compound 3: methyl nonafluorobutyl ether, C5H3F9O, purity 99.5%
Compound 4: ethanol, C2H6O, purity 99.5%

System: 1,1,1,2,2,3,3-heptafluoro-3-methoxypropane; phases: Liquid
Property: Molar heat capacity at constant pressure, J/K/mol (Liquid); method: Flow calorimetry
Temperature, K	Pressure, kPa	Molar heat capacity at constant pressure, J/K/mol	uncertainty
294.05	100	257.6706370112	
294.07	5000	255.4700337448	
294.08	10000	254.4697595328	
294.1	15000	253.6695401632	
266.01	100	240.2658657224	
266.01	5000	238.6654269832	
266.02	10000	237.064988244	
266.03	15000	236.4648237168	
284.81	100	251.8690465816	
284.81	5000	250.068553	
284.86	10000	248.6681691032	
284.94	15000	247.4678400488	
255.05	100	233.2639462384	
255.08	5000	231.2633978144	
255.06	10000	230.06306876	
255.06	15000	229.2628493904	
275.04	100	245.4672916248	
275.05	5000	244.2669625704	
275.11	10000	242.4664689888	
275.04	15000	241.2661399344	

System: ethanol; phases: Liquid
Property: Molar heat capacity at constant pressure, J/K/mol (Liquid); method: Flow calorimetry
Temperature, K	Pressure, kPa	Molar heat capacity at constant pressure, J/K/mol	uncertainty
273.17	100	103.4236478	
293.16	100	111.62383012	
313.18	100	120.4689706	
333.19	100	130.65009584	
273.17	5000	103.10116872	
293.16	5000	111.0249404	
313.18	5000	119.0869174	
333.19	5000	129.72872704	
273.17	10000	102.17979992	
293.16	10000	109.96536628	
313.18	10000	117.7048642	
333.19	10000	128.34667384	
273.17	15000	101.76518396	
293.16	15000	108.9518606	
313.18	15000	116.7834954	
333.19	15000	126.82641532	
273.17	20000	100.79774672	
293.16	20000	108.21476556	
313.18	20000	115.67785284	
333.19	20000	125.90504652	

System: methyl nonafluorobutyl ether + methyl nonafluoroisobutyl ether; phases: Liquid
Fixed: Mass fraction of methyl nonafluorobutyl ether = .995
Property: Molar heat capacity at constant pressure, J/K/mol (Liquid); method: Flow calorimetry
Pressure, kPa	Temperature, K	Molar heat capacity at constant pressure, J/K/mol	uncertainty
100	253.17	214.0533705728	
5000	253.15	209.0521235968	
10000	253.16	207.551749504	
15000	253.16	205.5512507136	
100	274.63	257.8142816128	
5000	274.63	252.8130346368	
10000	274.63	250.86254831616	
15000	274.59	249.36217422336	
100	294.1	300.52493078784	
5000	294.09	297.49917636736	
10000	294.09	294.8235092352	
15000	294.13	293.99830348416	
100	314.92	347.38661495296	
5000	314.92	345.13605381376	
10000	314.92	342.3353555072	
15000	314.92	340.084794368	
100	264.17	232.85805920256	
5000	264.16	230.60749806336	
10000	264.18	228.60699927296	
15000	264.15	227.10662518016	
100	284.26	278.04432563072	
5000	284.27	275.79376449152	
10000	284.25	273.79326570112	
15000	284.3	272.29289160832	
100	303.95	321.60518679168	
5000	303.96	319.35462565248	
10000	303.94	317.35412686208	
15000	303.96	315.85375276928	
100	323.71	374.0932738048	
5000	323.72	369.467120352	
10000	323.73	367.4666215616	
15000	323.74	364.8409668992	
