Measured thermophysical data. Liquid liquid equilibria at 298.15 K for ternary mixtures of methyl tert-butyl  ether + methanol (or ethanol) + imidazolium-based ionic liquids at atmospheric pressure
Source: Fluid Phase Equilib., 2013, 10.1016/j.fluid.2012.12.010
Compound 1: methanol, CH4O, purity 99.9%
Compound 2: ethanol, C2H6O, purity 99.9%
Compound 3: methyl tert-butyl ether, C5H12O, purity 99.9%
Compound 4: 1-butyl-3-methylimidazolium tetrafluoroborate, C8H15BF4N2, purity 98%
Compound 5: 1-ethyl-3-methylimidazolium ethyl sulfate, C8H16N2O4S, purity 95%

System: methanol + methyl tert-butyl ether + 1-butyl-3-methylimidazolium tetrafluoroborate; phases: Liquid mixture 2, Liquid mixture 1
Property: Mole fraction of methyl tert-butyl ether (Liquid mixture 2); method: Chromatography
Property: Mole fraction of methyl tert-butyl ether (Liquid mixture 1); method: Chromatography
Property: Mole fraction of methanol (Liquid mixture 1); method: Chromatography
Temperature, K	Pressure, kPa	Mole fraction of methanol	Mole fraction of methyl tert-butyl ether	uncertainty	Mole fraction of methyl tert-butyl ether	uncertainty	Mole fraction of methanol	uncertainty
298.15	101.325	0	.146	.002	.999	.002	0	.002
298.15	101.325	.123	.146	.002	.943	.002	.057	.002
298.15	101.325	.239	.147	.002	.868	.002	.131	.002
298.15	101.325	.343	.155	.002	.77	.002	.229	.002
298.15	101.325	.448	.162	.002	.652	.002	.344	.002
298.15	101.325	.503	.166	.002	.567	.002	.429	.002
298.15	101.325	.567	.181	.002	.472	.002	.511	.002
298.15	101.325	.605	.198	.002	.407	.002	.557	.002
298.15	101.325	.634	.235	.002	.333	.002	.615	.002

System: ethanol + methyl tert-butyl ether + 1-butyl-3-methylimidazolium tetrafluoroborate; phases: Liquid mixture 2, Liquid mixture 1
Property: Mole fraction of methyl tert-butyl ether (Liquid mixture 2); method: Chromatography
Property: Mole fraction of methyl tert-butyl ether (Liquid mixture 1); method: Chromatography
Property: Mole fraction of ethanol (Liquid mixture 1); method: Chromatography
Temperature, K	Pressure, kPa	Mole fraction of ethanol	Mole fraction of methyl tert-butyl ether	uncertainty	Mole fraction of methyl tert-butyl ether	uncertainty	Mole fraction of ethanol	uncertainty
298.15	101.325	0	.146	.002	.999	.002	0	.002
298.15	101.325	.119	.148	.002	.908	.002	.091	.002
298.15	101.325	.195	.147	.002	.828	.002	.171	.002
298.15	101.325	.263	.145	.002	.728	.002	.27	.002
298.15	101.325	.309	.142	.002	.648	.002	.349	.002
298.15	101.325	.343	.141	.002	.588	.002	.409	.002
298.15	101.325	.421	.133	.002	.449	.002	.542	.002
298.15	101.325	.504	.124	.002	.33	.002	.653	.002
298.15	101.325	.615	.117	.002	.211	.002	.741	.002

System: methanol + methyl tert-butyl ether + 1-ethyl-3-methylimidazolium ethyl sulfate; phases: Liquid mixture 2, Liquid mixture 1
Property: Mole fraction of methyl tert-butyl ether (Liquid mixture 2); method: Chromatography
Property: Mole fraction of methyl tert-butyl ether (Liquid mixture 1); method: Chromatography
Property: Mole fraction of methanol (Liquid mixture 1); method: Chromatography
Temperature, K	Pressure, kPa	Mole fraction of methanol	Mole fraction of methyl tert-butyl ether	uncertainty	Mole fraction of methyl tert-butyl ether	uncertainty	Mole fraction of methanol	uncertainty
298.15	101.325	0	.074	.002	.998	.002	0	.002
298.15	101.325	.143	.072	.002	.975	.002	.018	.002
298.15	101.325	.259	.068	.002	.958	.002	.041	.002
298.15	101.325	.34	.071	.002	.936	.002	.06	.002
298.15	101.325	.422	.074	.002	.912	.002	.087	.002
298.15	101.325	.517	.083	.002	.868	.002	.129	.002
298.15	101.325	.642	.095	.002	.794	.002	.2	.002
298.15	101.325	.71	.111	.002	.713	.002	.277	.002
298.15	101.325	.748	.137	.002	.654	.002	.336	.002

System: ethanol + methyl tert-butyl ether + 1-ethyl-3-methylimidazolium ethyl sulfate; phases: Liquid mixture 2, Liquid mixture 1
Property: Mole fraction of methyl tert-butyl ether (Liquid mixture 2); method: Chromatography
Property: Mole fraction of methyl tert-butyl ether (Liquid mixture 1); method: Chromatography
Property: Mole fraction of ethanol (Liquid mixture 1); method: Chromatography
Temperature, K	Pressure, kPa	Mole fraction of ethanol	Mole fraction of methyl tert-butyl ether	uncertainty	Mole fraction of methyl tert-butyl ether	uncertainty	Mole fraction of ethanol	uncertainty
298.15	101.325	0	.074	.002	.998	.002	0	.002
298.15	101.325	.101	.075	.002	.986	.002	.014	.002
298.15	101.325	.201	.081	.002	.96	.002	.039	.002
298.15	101.325	.319	.092	.002	.904	.002	.095	.002
298.15	101.325	.38	.106	.002	.863	.002	.136	.002
298.15	101.325	.446	.125	.002	.802	.002	.196	.002
298.15	101.325	.509	.163	.002	.723	.002	.266	.002
298.15	101.325	.549	.21	.002	.637	.002	.353	.002
298.15	101.325	.57	.274	.002	.523	.002	.443	.002
