Measured thermophysical data. Phase equilibria for systems containing dimethyl disulfide and diethyl disulfide with hydrocarbons at 368.15 K
Source: Fluid Phase Equilib., 2010, 10.1016/j.fluid.2010.02.043
Compound 1: 2,3-dithiabutane, C2H6S2, purity 99%
Compound 2: 3,4-dithiahexane, C4H10S2, purity 99%
Compound 3: toluene, C7H8, purity 99.5%
Compound 4: 2,2,4-trimethylpentane, C8H18, purity 99%
Compound 5: 2,4,4-trimethyl-1-pentene, C8H16, purity 99%
Compound 6: 1,2-dimethylbenzene, C8H10, purity 99%

System: 2,3-dithiabutane; phases: Liquid, Gas
Property: Vapor or sublimation pressure, kPa (Liquid); method: Ebulliometric method (Recirculating still)
Temperature, K	Vapor or sublimation pressure, kPa	uncertainty
382.02	100.6	.17
378.75	90.9	.17
375.04	81.1	.17
371.63	72.9	.17
366.46	61.9	.17
362.18	53.9	.17
354.42	41.7	.17
346.26	31.1	.17
332.19	18.2	.17

System: 3,4-dithiahexane; phases: Liquid, Gas
Property: Vapor or sublimation pressure, kPa (Liquid); method: Ebulliometric method (Recirculating still)
Temperature, K	Vapor or sublimation pressure, kPa	uncertainty
426.39	100.7	.17
422.25	90.5	.17
418.73	82.1	.17
413.59	71.1	.17
408.91	62.2	.17
403.31	52.8	.17
397.84	44.4	.17
387.59	32.3	.17
378.82	24.1	.17
366.97	15.8	.17

System: toluene + 2,3-dithiabutane; phases: Gas, Liquid
Fixed: Temperature, K = 368.15
Property: Vapor or sublimation pressure, kPa (Gas); method: Ebulliometric method (Recirculating still)
Mole fraction of 2,3-dithiabutane	Vapor or sublimation pressure, kPa	uncertainty
0	63.9	.17
.088	64.6	.17
.139	64.9	.17
.205	65.3	.17
.28	65.6	.17
.369	66	.17
.464	66.2	.17
.566	66.4	.17
.667	66.4	.17
.76	66.3	.17
.845	66.1	.17
.915	66	.17
.967	65.7	.17
1	65.5	.17

System: toluene + 2,3-dithiabutane; phases: Gas, Liquid
Fixed: Temperature, K = 368.15
Property: Mole fraction of 2,3-dithiabutane (Gas); method: Chromatography
Mole fraction of 2,3-dithiabutane	Mole fraction of 2,3-dithiabutane	uncertainty
0	0	.003
.088	.096	.003
.139	.15	.003
.205	.217	.003
.28	.292	.003
.369	.38	.003
.464	.473	.003
.566	.569	.003
.667	.665	.003
.76	.755	.003
.845	.84	.003
.915	.911	.003
.967	.965	.003
1	1	.003

System: toluene + 2,3-dithiabutane; phases: Liquid, Gas
Property: Azeotropic composition: mole fraction of 2,3-dithiabutane (Liquid); method: By T or P extreme
Temperature, K	Azeotropic composition: mole fraction of 2,3-dithiabutane	uncertainty
368.15	.632	.003

System: toluene + 2,3-dithiabutane; phases: Liquid, Gas
Property: Azeotropic composition: mole fraction of 2,3-dithiabutane (Liquid); method: By T or P extreme
Pressure, kPa	Azeotropic composition: mole fraction of 2,3-dithiabutane	uncertainty
66.4	.632	.003

System: 2,2,4-trimethylpentane + 2,3-dithiabutane; phases: Gas, Liquid
Fixed: Temperature, K = 368.15
Property: Vapor or sublimation pressure, kPa (Gas); method: Ebulliometric method (Recirculating still)
Mole fraction of 2,3-dithiabutane	Vapor or sublimation pressure, kPa	uncertainty
0	90.4	.17
.082	93	.17
.193	95	.17
.324	95.7	.17
.469	94.8	.17
.596	92.5	.17
.713	88.7	.17
.809	84.2	.17
.892	78.3	.17
.947	72.7	.17
1	65.5	.17

System: 2,2,4-trimethylpentane + 2,3-dithiabutane; phases: Gas, Liquid
Fixed: Temperature, K = 368.15
Property: Mole fraction of 2,3-dithiabutane (Gas); method: Chromatography
Mole fraction of 2,3-dithiabutane	Mole fraction of 2,3-dithiabutane	uncertainty
0	0	.003
.082	.104	.003
.193	.216	.003
.324	.321	.003
.469	.419	.003
.596	.499	.003
.713	.577	.003
.809	.659	.003
.892	.757	.003
.947	.853	.003
1	1	.003

System: 2,2,4-trimethylpentane + 2,3-dithiabutane; phases: Liquid, Gas
Property: Azeotropic composition: mole fraction of 2,3-dithiabutane (Liquid); method: By T or P extreme
Temperature, K	Azeotropic composition: mole fraction of 2,3-dithiabutane	uncertainty
368.15	.311	.003

System: 2,2,4-trimethylpentane + 2,3-dithiabutane; phases: Liquid, Gas
Property: Azeotropic composition: mole fraction of 2,3-dithiabutane (Liquid); method: By T or P extreme
Pressure, kPa	Azeotropic composition: mole fraction of 2,3-dithiabutane	uncertainty
95.8	.311	.003

System: 2,4,4-trimethyl-1-pentene + 2,3-dithiabutane; phases: Gas, Liquid
Fixed: Temperature, K = 368.15
Property: Vapor or sublimation pressure, kPa (Gas); method: Ebulliometric method (Recirculating still)
Mole fraction of 2,3-dithiabutane	Vapor or sublimation pressure, kPa	uncertainty
0	84.5	.17
.086	86.4	.17
.192	87.8	.17
.318	88.4	.17
.426	87.7	.17
.537	86.2	.17
.661	83.8	.17
.832	78	.17
.924	72.4	.17
.97	68.6	.17
1	65.5	.17

System: 2,4,4-trimethyl-1-pentene + 2,3-dithiabutane; phases: Gas, Liquid
Fixed: Temperature, K = 368.15
Property: Mole fraction of 2,3-dithiabutane (Gas); method: Chromatography
Mole fraction of 2,3-dithiabutane	Mole fraction of 2,3-dithiabutane	uncertainty
0	0	.003
.086	.103	.003
.192	.208	.003
.318	.314	.003
.426	.395	.003
.537	.476	.003
.661	.566	.003
.832	.714	.003
.924	.842	.003
.97	.928	.003
1	1	.003

System: 2,4,4-trimethyl-1-pentene + 2,3-dithiabutane; phases: Liquid, Gas
Property: Azeotropic composition: mole fraction of 2,3-dithiabutane (Liquid); method: By T or P extreme
Temperature, K	Azeotropic composition: mole fraction of 2,3-dithiabutane	uncertainty
368.15	.295	.003

System: 2,4,4-trimethyl-1-pentene + 2,3-dithiabutane; phases: Liquid, Gas
Property: Azeotropic composition: mole fraction of 2,3-dithiabutane (Liquid); method: By T or P extreme
Pressure, kPa	Azeotropic composition: mole fraction of 2,3-dithiabutane	uncertainty
88.4	.295	.003

System: 3,4-dithiahexane + 2,2,4-trimethylpentane; phases: Gas, Liquid
Fixed: Temperature, K = 368.15
Property: Vapor or sublimation pressure, kPa (Gas); method: Ebulliometric method (Recirculating still)
Mole fraction of 3,4-dithiahexane	Vapor or sublimation pressure, kPa	uncertainty
0	90.3	.17
.049	87.4	.17
.127	82.7	.17
.218	77.6	.17
.347	70.6	.17
.523	60.5	.17
.652	51.8	.17
.81	38.6	.17
.939	24.7	.17
1	16.3	.17

System: 3,4-dithiahexane + 2,2,4-trimethylpentane; phases: Gas, Liquid
Fixed: Temperature, K = 368.15
Property: Mole fraction of 3,4-dithiahexane (Gas); method: Chromatography
Mole fraction of 3,4-dithiahexane	Mole fraction of 3,4-dithiahexane	uncertainty
0	0	.003
.049	.017	.003
.127	.042	.003
.218	.069	.003
.347	.108	.003
.523	.164	.003
.652	.224	.003
.81	.353	.003
.939	.624	.003
1	1	.003
