Measured thermophysical data. Thermodynamics properties, VLE and HE, of the systems 2-pentanol and cyclohexane or methylbenzene for contributing to the knowledge of new biofuels
Source: Fluid Phase Equilib., 2016, 10.1016/j.fluid.2015.09.035
Compound 1: 2-pentanol, C5H12O, purity 99.7%
Compound 2: cyclohexane, C6H12, purity 99.7%
Compound 3: toluene, C7H8, purity 99.7%

System: cyclohexane + 2-pentanol; phases: Gas, Liquid
Fixed: Temperature, K = 313.15
Property: Vapor or sublimation pressure, kPa (Gas); method: Closed cell (Static) method
Mole fraction of 2-pentanol	Vapor or sublimation pressure, kPa	uncertainty
0	24.575	.005
.0497	24.563	.005
.1	24.33	.005
.1502	24.036	.005
.2004	23.708	.005
.2507	23.328	.005
.3006	22.899	.005
.3489	22.421	.005
.4007	21.879	.005
.4007	21.875	.005
.4508	21.263	.005
.4509	21.259	.005
.5009	20.558	.005
.501	20.565	.005
.551	19.753	.005
.5511	19.765	.005
.6008	18.832	.005
.6013	18.834	.005
.6513	17.759	.005
.7013	16.497	.005
.7513	15.008	.005
.8016	13.234	.005
.8513	11.14	.005
.9007	8.672	.005
.9498	5.82	.005
1	2.294	.005

System: cyclohexane + 2-pentanol; phases: Gas, Liquid
Fixed: Temperature, K = 313.15
Property: Mole fraction of 2-pentanol (Gas); method: Barker's method
Mole fraction of 2-pentanol	Mole fraction of 2-pentanol	uncertainty
0	0	.0005
.0497	.0293	.0005
.1	.0377	.0005
.1502	.0421	.0005
.2004	.046	.0005
.2507	.0501	.0005
.3006	.0543	.0005
.3489	.0585	.0005
.4007	.0631	.0005
.4007	.0631	.0005
.4508	.0678	.0005
.4509	.0678	.0005
.5009	.073	.0005
.501	.073	.0005
.551	.079	.0005
.5511	.079	.0005
.6008	.0862	.0005
.6013	.0863	.0005
.6513	.0953	.0005
.7013	.107	.0005
.7513	.1225	.0005
.8016	.1448	.0005
.8513	.1788	.0005
.9007	.2391	.0005
.9498	.3765	.0005
1	1	.0005

System: cyclohexane + 2-pentanol; phases: Liquid, Gas
Property: Excess molar enthalpy (molar enthalpy of mixing), kJ/mol (Liquid); method: Flow calorimetry
Temperature, K	Mole fraction of 2-pentanol	Excess molar enthalpy (molar enthalpy of mixing), kJ/mol	uncertainty
298.15	0	0	0
298.15	.0496	.44125	.00220625
298.15	.1013	.60123	.00300615
298.15	.151	.708	.00354
298.15	.2008	.79213	.00396065
298.15	.2506	.8581	.0042905
298.15	.3005	.9137	.0045685
298.15	.3503	.95225	.00476125
298.15	.4001	.96914	.0048457
298.15	.4499	.97966	.0048983
298.15	.5002	.95595	.00477975
298.15	.5499	.91978	.0045989
298.15	.6002	.8679	.0043395
298.15	.6501	.78095	.00390475
298.15	.7002	.69283	.00346415
298.15	.7504	.61014	.0030507
298.15	.8007	.50695	.00253475
298.15	.8509	.39014	.0019507
298.15	.9013	.26144	.0013072
298.15	.9496	.12637	.00063185
298.15	1	0	0
313.15	0	0	0
313.15	.0496	.55681	.00278405
313.15	.1013	.75665	.00378325
313.15	.151	.87218	.0043609
313.15	.2008	.95957	.00479785
313.15	.2506	1.02822	.0051411
313.15	.3003	1.07872	.0053936
313.15	.3502	1.10743	.00553715
313.15	.4002	1.10752	.0055376
313.15	.4501	1.10862	.0055431
313.15	.5001	1.08547	.00542735
313.15	.5501	1.04878	.0052439
313.15	.6001	.98944	.0049472
313.15	.6502	.91826	.0045913
313.15	.7003	.82863	.00414315
313.15	.7505	.71681	.00358405
313.15	.8007	.60261	.00301305
313.15	.851	.46054	.0023027
313.15	.9013	.31625	.00158125
313.15	.9496	.16483	.00082415
313.15	1	0	0

System: toluene + 2-pentanol; phases: Gas, Liquid
Fixed: Temperature, K = 313.15
Property: Vapor or sublimation pressure, kPa (Gas); method: Closed cell (Static) method
Mole fraction of 2-pentanol	Vapor or sublimation pressure, kPa	uncertainty
0	7.877	.005
.0498	8.055	.005
.0995	8.042	.005
.1495	8.003	.005
.1996	7.958	.005
.2499	7.875	.005
.2998	7.78	.005
.3497	7.628	.005
.3997	7.532	.005
.4004	7.534	.005
.4498	7.355	.005
.4504	7.378	.005
.4999	7.193	.005
.5004	7.176	.005
.5499	6.979	.005
.5504	6.896	.005
.5999	6.743	.005
.6005	6.744	.005
.6506	6.464	.005
.7006	6.074	.005
.7628	5.653	.005
.8008	5.255	.005
.8507	4.716	.005
.9008	4.051	.005
.9509	3.268	.005
1	2.302	.005

System: toluene + 2-pentanol; phases: Gas, Liquid
Fixed: Temperature, K = 313.15
Property: Mole fraction of 2-pentanol (Gas); method: Barker's method
Mole fraction of 2-pentanol	Mole fraction of 2-pentanol	uncertainty
0	0	.0005
.0498	.0592	.0005
.0995	.0912	.0005
.1495	.1122	.0005
.1996	.1281	.0005
.2499	.1416	.0005
.2998	.154	.0005
.3497	.166	.0005
.3997	.1782	.0005
.4004	.1784	.0005
.4498	.1911	.0005
.4504	.1913	.0005
.4999	.2051	.0005
.5004	.2053	.0005
.5499	.2207	.0005
.5504	.2209	.0005
.5999	.2388	.0005
.6005	.239	.0005
.6506	.2604	.0005
.7006	.2865	.0005
.7628	.3287	.0005
.8008	.3626	.0005
.8507	.4223	.0005
.9008	.5125	.0005
.9509	.6675	.0005
1	1	.0005

System: toluene + 2-pentanol; phases: Liquid, Gas
Property: Excess molar enthalpy (molar enthalpy of mixing), kJ/mol (Liquid); method: Flow calorimetry
Temperature, K	Mole fraction of 2-pentanol	Excess molar enthalpy (molar enthalpy of mixing), kJ/mol	uncertainty
298.15	0	0	0
298.15	.0508	.62445	.00312225
298.15	.0998	.94724	.0047362
298.15	.151	1.15449	.00577245
298.15	.2002	1.29619	.00648095
298.15	.2496	1.40207	.00701035
298.15	.3009	1.48102	.0074051
298.15	.3506	1.53567	.00767835
298.15	.4003	1.5618	.007809
298.15	.4501	1.56214	.0078107
298.15	.5001	1.5437	.0077185
298.15	.5501	1.50232	.0075116
298.15	.6003	1.44138	.0072069
298.15	.6506	1.33935	.00669675
298.15	.701	1.22487	.00612435
298.15	.7495	1.08384	.0054192
298.15	.8002	.92166	.0046083
298.15	.8509	.72301	.00361505
298.15	.8996	.50051	.00250255
298.15	.9508	.24986	.0012493
298.15	1	0	0
313.15	0	0	0
313.15	.0508	.64404	.0032202
313.15	.0999	1.02655	.00513275
313.15	.151	1.28277	.00641385
313.15	.2003	1.44584	.0072292
313.15	.2496	1.56721	.00783605
313.15	.301	1.65947	.00829735
313.15	.3506	1.70891	.00854455
313.15	.4003	1.73174	.0086587
313.15	.4502	1.73277	.00866385
313.15	.5001	1.70316	.0085158
313.15	.5502	1.64947	.00824735
313.15	.6003	1.57721	.00788605
313.15	.6505	1.47538	.0073769
313.15	.701	1.34058	.0067029
313.15	.7495	1.17974	.0058987
313.15	.8002	.99913	.00499565
313.15	.851	.78212	.0039106
313.15	.8998	.55046	.0027523
313.15	.9509	.27651	.00138255
313.15	1	0	0
