Measured thermophysical data. Multiphase equilibria for mixtures containing water, isopropanol, propionic acid, and isopropyl propionate
Source: Fluid Phase Equilib., 2011, 10.1016/j.fluid.2011.03.003
Compound 1: 2-propanol, C3H8O, purity 99.5%
Compound 2: propanoic acid, C3H6O2, purity 99%
Compound 3: 1-methylethyl propanoate, C6H12O2, purity 98%
Compound 4: water, H2O

System: 2-propanol; phases: Liquid, Gas
Property: Vapor or sublimation pressure, kPa (Liquid); method: Closed cell (Static) method
Temperature, K	Vapor or sublimation pressure, kPa	uncertainty
355.15	101.3	.2

System: propanoic acid; phases: Liquid, Gas
Property: Vapor or sublimation pressure, kPa (Liquid); method: Closed cell (Static) method
Temperature, K	Vapor or sublimation pressure, kPa	uncertainty
413.58	101.3	.2

System: 1-methylethyl propanoate; phases: Liquid, Gas
Property: Vapor or sublimation pressure, kPa (Liquid); method: Closed cell (Static) method
Temperature, K	Vapor or sublimation pressure, kPa	uncertainty
337.66	24.6	.0246
342.61	29.5	.0295
347.62	35.68	.03568
352.67	42.43	.04243
357.58	50.12	.05012
362.57	59	.059
382.65	101.3	.1013

System: 2-propanol + 1-methylethyl propanoate; phases: Gas, Liquid
Fixed: Pressure, kPa = 101.3
Property: Mole fraction of 1-methylethyl propanoate (Gas); method: Chromatography
Mole fraction of 1-methylethyl propanoate	Mole fraction of 1-methylethyl propanoate	uncertainty
0	0	.002
.0387	.0299	.002
.123	.0856	.002
.1956	.1276	.002
.27	.1686	.002
.3413	.2139	.002
.4317	.2547	.002
.5597	.3263	.002
.6334	.3772	.002
.6812	.4257	.002
.7599	.4933	.002
.831	.5959	.002
.8565	.6317	.002
.8722	.6656	.002
.9031	.7227	.002
.9254	.7775	.002
.9398	.8112	.002
.9512	.8362	.002
.9737	.91	.002
1	1	.002

System: 2-propanol + 1-methylethyl propanoate; phases: Gas, Liquid
Fixed: Pressure, kPa = 101.3
Property: Boiling temperature at pressure P, K (Gas); method: Closed cell (Static) method
Mole fraction of 1-methylethyl propanoate	Boiling temperature at pressure P, K	uncertainty
0	355.15	.1
.0387	355.35	.1
.123	355.95	.1
.1956	356.45	.1
.27	357.25	.1
.3413	358.35	.1
.4317	359.25	.1
.5597	361.75	.1
.6334	363.45	.1
.6812	364.95	.1
.7599	367.35	.1
.831	370.65	.1
.8565	371.75	.1
.8722	372.55	.1
.9031	374.65	.1
.9254	376.35	.1
.9398	377.15	.1
.9512	377.95	.1
.9737	379.75	.1
1	382.65	.1

System: propanoic acid + 1-methylethyl propanoate; phases: Gas, Liquid
Fixed: Pressure, kPa = 101.3
Property: Mole fraction of propanoic acid (Gas); method: Chromatography
Mole fraction of propanoic acid	Mole fraction of propanoic acid	uncertainty
0	0	.002
.0796	.0338	.002
.1485	.0598	.002
.2557	.1059	.002
.3951	.1999	.002
.4776	.2744	.002
.6122	.3861	.002
.6981	.49	.002
.7303	.5397	.002
.793	.6389	.002
.8499	.7432	.002
.892	.8027	.002
.9268	.8603	.002
.9663	.9432	.002
.9895	.9822	.002
1	1	.002

System: propanoic acid + 1-methylethyl propanoate; phases: Gas, Liquid
Fixed: Pressure, kPa = 101.3
Property: Boiling temperature at pressure P, K (Gas); method: Closed cell (Static) method
Mole fraction of propanoic acid	Boiling temperature at pressure P, K	uncertainty
0	382.65	.1
.0796	384.21	.1
.1485	385.22	.1
.2557	386.73	.1
.3951	389.96	.1
.4776	392.58	.1
.6122	396.81	.1
.6981	399.61	.1
.7303	401.17	.1
.793	404.07	.1
.8499	406.42	.1
.892	408.23	.1
.9268	409.78	.1
.9663	412.13	.1
.9895	413.13	.1
1	413.58	.1

System: 1-methylethyl propanoate + water; phases: Liquid mixture 2, Liquid mixture 1, Gas
Property: Mole fraction of 1-methylethyl propanoate (Liquid mixture 2); method: Chromatography
Temperature, K	Mole fraction of 1-methylethyl propanoate	uncertainty
323.24	.0007	.002
328.39	.0008	.002
333.51	.0009	.002
338.12	.001	.002
343.25	.0011	.002
348.15	.0012	.002
353.35	.0014	.002
358.12	.0016	.002
363.34	.0018	.002
368	.0021	.002
373.15	.0025	.002

System: 1-methylethyl propanoate + water; phases: Gas, Liquid mixture 1, Liquid mixture 2
Property: Vapor or sublimation pressure, kPa (Gas); method: Closed cell (Static) method
Temperature, K	Vapor or sublimation pressure, kPa	uncertainty
323.24	23.4	.0234
328.39	29.3	.0293
333.51	36.8	.0368
338.12	45.5	.0455
343.25	56	.056
348.15	68.3	.0683
353.35	83	.083
358.12	100.4	.1004
363.34	120.2	.1202
368	143.9	.1439
373.15	170.8	.1708

System: 1-methylethyl propanoate + water; phases: Liquid mixture 1, Liquid mixture 2, Gas
Property: Mole fraction of 1-methylethyl propanoate (Liquid mixture 1); method: Chromatography
Temperature, K	Mole fraction of 1-methylethyl propanoate	uncertainty
323.24	.9146	.000018292
328.39	.8972	.000017944
333.51	.8764	.000017528
338.12	.8651	.000017302
343.25	.854	.00001708
348.15	.8398	.000016796
353.35	.8219	.000016438
358.12	.8045	.00001609
363.34	.8018	.000016036
368	.7805	.00001561
373.15	.7772	.000015544

System: 1-methylethyl propanoate + water; phases: Gas, Liquid mixture 2, Liquid mixture 1
Property: Mole fraction of 1-methylethyl propanoate (Gas); method: Chromatography
Temperature, K	Mole fraction of 1-methylethyl propanoate	uncertainty
323.24	.4752	.000009504
328.39	.4645	.00000929
333.51	.4498	.000008996
338.12	.4453	.000008906
343.25	.4347	.000008694
348.15	.4252	.000008504
353.35	.4216	.000008432
358.12	.4201	.000008402
363.34	.4155	.00000831
368	.412	.00000824
373.15	.4091	.000008182

System: 2-propanol + 1-methylethyl propanoate + water; phases: Liquid mixture 1, Liquid mixture 2, Gas
Property: Mole fraction of 1-methylethyl propanoate (Liquid mixture 1); method: Chromatography
Property: Mole fraction of 2-propanol (Liquid mixture 1); method: Chromatography
Property: Mole fraction of 2-propanol (Liquid mixture 2); method: Chromatography
Property: Mole fraction of water (Liquid mixture 2); method: Chromatography
Property: Mole fraction of 2-propanol (Gas); method: Chromatography
Property: Mole fraction of water (Gas); method: Chromatography
Temperature, K	Pressure, kPa	Mole fraction of 1-methylethyl propanoate	uncertainty	Mole fraction of 2-propanol	uncertainty	Mole fraction of 2-propanol	uncertainty	Mole fraction of water	uncertainty	Mole fraction of 2-propanol	uncertainty	Mole fraction of water	uncertainty
323.24	27.3	.0995	.002	.2735	.002	.0854	.002	.91	.002	.3919	.002	.4099	.002
348.15	71.7	.7819	.002	.0471	.002	.0096	.002	.989	.002	.0429	.002	.5546	.002
373.15	204.3	.1223	.002	.2669	.002	.0662	.002	.9309	.002	.3559	.002	.4641	.002
373.15	203.2	.2093	.002	.2984	.002	.0512	.002	.9465	.002	.3221	.002	.4737	.002
373.15	201.7	.3212	.002	.2805	.002	.0373	.002	.9605	.002	.2676	.002	.4892	.002
373.15	192	.5258	.002	.1781	.002	.0212	.002	.9771	.002	.173	.002	.5144	.002
373.15	177.4	.7154	.002	.0488	.002	.0095	.002	.9891	.002	.0544	.002	.5668	.002
323.24	27.2	.1551	.002	.3089	.002	.0738	.002	.9227	.002	.3765	.002	.4182	.002
323.24	27	.2541	.002	.323	.002	.0577	.002	.94	.002	.2344	.002	.452	.002
323.24	26.7	.4063	.002	.2863	.002	.0437	.002	.9541	.002	.2097	.002	.458	.002
323.24	26.6	.6316	.002	.1791	.002	.0297	.002	.9685	.002	.1891	.002	.4644	.002
348.15	82	.137	.002	.2924	.002	.0668	.002	.9302	.002	.3591	.002	.4442	.002
348.15	80.9	.2252	.002	.3127	.002	.0532	.002	.9444	.002	.3093	.002	.4638	.002
348.15	80.5	.3613	.002	.2852	.002	.0394	.002	.9586	.002	.2404	.002	.4846	.002
348.15	77.2	.5739	.002	.1814	.002	.0199	.002	.9786	.002	.0972	.002	.5315	.002
