Measured thermophysical data. Solubility of triclosan and iodopropynyl butylcarbamate in pure alkanols at several temperatures
Source: Fluid Phase Equilib., 2012, 10.1016/j.fluid.2012.05.020
Compound 1: 2,4,4'-trichloro-2'-hydroxydiphenyl ether, C12H7Cl3O2
Compound 2: iodopropynyl butylcarbamate, C8H12INO2
Compound 3: ethanol, C2H6O
Compound 4: 1-propanol, C3H8O
Compound 5: 1-butanol, C4H10O
Compound 6: 1-pentanol, C5H12O
Compound 7: 1-hexanol, C6H14O
Compound 8: 1-heptanol, C7H16O
Compound 9: water, H2O, purity 99.8%
Compound 10: DL-2-aminopropanoic acid, C3H7NO2, purity 99%

System: DL-2-aminopropanoic acid + water; phases: Liquid, Crystal
Fixed: Pressure, kPa = 101
Property: Mole fraction of DL-2-aminopropanoic acid (Liquid); method: Phase equilibration
Temperature, K	Mole fraction of DL-2-aminopropanoic acid	uncertainty
278.15	.0254	.007
288.15	.0288	.007
298.15	.0326	.007
308.15	.0368	.007
318.15	.042	.007
328.15	.0477	.007

System: ethanol + 2,4,4'-trichloro-2'-hydroxydiphenyl ether; phases: Liquid, Crystal
Fixed: Pressure, kPa = 101
Property: Mole fraction of 2,4,4'-trichloro-2'-hydroxydiphenyl ether (Liquid); method: Phase equilibration
Temperature, K	Mole fraction of 2,4,4'-trichloro-2'-hydroxydiphenyl ether	uncertainty
278.15	.25514	.0072
288.15	.32666	.0072
298.15	.4231	.0072
308.15	.55341	.0072
318.15	.73359	.0072

System: 1-propanol + 2,4,4'-trichloro-2'-hydroxydiphenyl ether; phases: Liquid, Crystal
Fixed: Pressure, kPa = 101
Property: Mole fraction of 2,4,4'-trichloro-2'-hydroxydiphenyl ether (Liquid); method: Phase equilibration
Temperature, K	Mole fraction of 2,4,4'-trichloro-2'-hydroxydiphenyl ether	uncertainty
278.15	.26411	.0058
288.15	.33852	.0058
298.15	.43418	.0058
308.15	.56274	.0058
318.15	.74339	.0058

System: 1-butanol + 2,4,4'-trichloro-2'-hydroxydiphenyl ether; phases: Liquid, Crystal
Fixed: Pressure, kPa = 101
Property: Mole fraction of 2,4,4'-trichloro-2'-hydroxydiphenyl ether (Liquid); method: Phase equilibration
Temperature, K	Mole fraction of 2,4,4'-trichloro-2'-hydroxydiphenyl ether	uncertainty
278.15	.27293	.0049
288.15	.34728	.0049
298.15	.44761	.0049
308.15	.57646	.0049
318.15	.74906	.0049

System: 1-pentanol + 2,4,4'-trichloro-2'-hydroxydiphenyl ether; phases: Liquid, Crystal
Fixed: Pressure, kPa = 101
Property: Mole fraction of 2,4,4'-trichloro-2'-hydroxydiphenyl ether (Liquid); method: Phase equilibration
Temperature, K	Mole fraction of 2,4,4'-trichloro-2'-hydroxydiphenyl ether	uncertainty
278.15	.28128	.0043
288.15	.35827	.0043
298.15	.45695	.0043
308.15	.58623	.0043
318.15	.76003	.0043

System: 1-hexanol + 2,4,4'-trichloro-2'-hydroxydiphenyl ether; phases: Liquid, Crystal
Fixed: Pressure, kPa = 101
Property: Mole fraction of 2,4,4'-trichloro-2'-hydroxydiphenyl ether (Liquid); method: Phase equilibration
Temperature, K	Mole fraction of 2,4,4'-trichloro-2'-hydroxydiphenyl ether	uncertainty
278.15	.28795	.004
288.15	.37033	.004
298.15	.48006	.004
308.15	.61052	.004
318.15	.77111	.004

System: 1-heptanol + 2,4,4'-trichloro-2'-hydroxydiphenyl ether; phases: Liquid, Crystal
Fixed: Pressure, kPa = 101
Property: Mole fraction of 2,4,4'-trichloro-2'-hydroxydiphenyl ether (Liquid); method: Phase equilibration
Temperature, K	Mole fraction of 2,4,4'-trichloro-2'-hydroxydiphenyl ether	uncertainty
278.15	.30077	.0037
288.15	.3837	.0037
298.15	.49148	.0037
308.15	.61945	.0037
318.15	.78019	.0037

System: ethanol + iodopropynyl butylcarbamate; phases: Liquid, Crystal
Fixed: Pressure, kPa = 101
Property: Mole fraction of iodopropynyl butylcarbamate (Liquid); method: Phase equilibration
Temperature, K	Mole fraction of iodopropynyl butylcarbamate	uncertainty
278.15	.09285	.0027
288.15	.1428	.0027
298.15	.21504	.0027
308.15	.3317	.0027
318.15	.49765	.0027

System: 1-propanol + iodopropynyl butylcarbamate; phases: Liquid, Crystal
Fixed: Pressure, kPa = 101
Property: Mole fraction of iodopropynyl butylcarbamate (Liquid); method: Phase equilibration
Temperature, K	Mole fraction of iodopropynyl butylcarbamate	uncertainty
278.15	.08586	.002
288.15	.13172	.002
298.15	.20255	.002
308.15	.31671	.002
318.15	.48455	.002

System: 1-butanol + iodopropynyl butylcarbamate; phases: Liquid, Crystal
Fixed: Pressure, kPa = 101
Property: Mole fraction of iodopropynyl butylcarbamate (Liquid); method: Phase equilibration
Temperature, K	Mole fraction of iodopropynyl butylcarbamate	uncertainty
278.15	.08103	.0015
288.15	.12561	.0015
298.15	.1924	.0015
308.15	.30388	.0015
318.15	.47068	.0015

System: 1-pentanol + iodopropynyl butylcarbamate; phases: Liquid, Crystal
Fixed: Pressure, kPa = 101
Property: Mole fraction of iodopropynyl butylcarbamate (Liquid); method: Phase equilibration
Temperature, K	Mole fraction of iodopropynyl butylcarbamate	uncertainty
278.15	.07599	.0015
288.15	.11678	.0015
298.15	.1841	.0015
308.15	.29602	.0015
318.15	.46037	.0015

System: 1-hexanol + iodopropynyl butylcarbamate; phases: Liquid, Crystal
Fixed: Pressure, kPa = 101
Property: Mole fraction of iodopropynyl butylcarbamate (Liquid); method: Phase equilibration
Temperature, K	Mole fraction of iodopropynyl butylcarbamate	uncertainty
278.15	.06964	.001
288.15	.10911	.001
298.15	.17055	.001
308.15	.27928	.001
318.15	.45299	.001

System: 1-heptanol + iodopropynyl butylcarbamate; phases: Liquid, Crystal
Fixed: Pressure, kPa = 101
Property: Mole fraction of iodopropynyl butylcarbamate (Liquid); method: Phase equilibration
Temperature, K	Mole fraction of iodopropynyl butylcarbamate	uncertainty
278.15	.06145	.0009
288.15	.09658	.0009
298.15	.15465	.0009
308.15	.26012	.0009
318.15	.43954	.0009
