Measured thermophysical data. A favourable solubility of isoniazid, an antitubercular antibiotic drug, in alternative solvents
Source: Fluid Phase Equilib., 2012, 10.1016/j.fluid.2012.01.022
Compound 1: isonicotinic acid hydrazide, C6H7N3O, purity 99%
Compound 2: 1-ethyl-3-methylimidazolium bis[(trifluoromethyl)sulfonyl]imide, C8H11F6N3O4S2, purity 99%
Compound 3: 1-butyl-3-methylimidazolium bis[(trifluoromethyl)sulfonyl]imide, C10H15F6N3O4S2, purity 99%
Compound 4: 1-hexyl-3-methylimidazolium bis[(trifluoromethyl)sulfonyl]imide, C12H19F6N3O4S2, purity 99%
Compound 5: 1-octyl-3-methylimidazolium bis[(trifluoromethyl)sulfonyl]imide, C14H23F6N3O4S2, purity 99%
Compound 6: 1-decyl-3-methylimidazolium bis(trifluoromethylsulfonyl)amide, C16H27F6N3O4S2, purity 99%
Compound 7: 1-decyl-3-methylimidazolium trifluoromethansulfate, C15H27F3N2O3S, purity 99%

System: isonicotinic acid hydrazide; phases: Crystal, Liquid, Air at 1 atmosphere
Property: Normal melting temperature, K (Crystal); method: DSC/DTA
Normal melting temperature, K	uncertainty
445.84	.5

System: isonicotinic acid hydrazide; phases: Crystal, Liquid, Air at 1 atmosphere
Property: Molar enthalpy of transition or fusion, kJ/mol (Crystal); method: DSC/DTA
Molar enthalpy of transition or fusion, kJ/mol	uncertainty
27.912	.28

System: isonicotinic acid hydrazide + 1-ethyl-3-methylimidazolium bis[(trifluoromethyl)sulfonyl]imide; phases: Liquid, Crystal
Fixed: Pressure, kPa = 100
Property: Mole fraction of isonicotinic acid hydrazide (Liquid); method: Visual
Temperature, K	Mole fraction of isonicotinic acid hydrazide	uncertainty
331.06	.008	.0005
343.57	.014	.0005
353.88	.023	.0005
362.57	.035	.0005
369.49	.046	.0005
377.62	.059	.0005
386.06	.081	.0005
392.18	.102	.0005
400.16	.126	.0005
405.53	.155	.0005
409.47	.187	.0005
445.84	1	.0005

System: isonicotinic acid hydrazide + 1-butyl-3-methylimidazolium bis[(trifluoromethyl)sulfonyl]imide; phases: Liquid, Crystal
Fixed: Pressure, kPa = 100
Property: Mole fraction of isonicotinic acid hydrazide (Liquid); method: Visual
Temperature, K	Mole fraction of isonicotinic acid hydrazide	uncertainty
323.6	.004	.0005
337.94	.008	.0005
352.74	.015	.0005
359.52	.026	.0005
368.47	.04	.0005
375.95	.051	.0005
380.37	.063	.0005
388.49	.078	.0005
396.24	.101	.0005
401.6	.122	.0005
406.77	.143	.0005
411.62	.172	.0005
415.89	.213	.0005
445.84	1	.0005

System: isonicotinic acid hydrazide + 1-hexyl-3-methylimidazolium bis[(trifluoromethyl)sulfonyl]imide; phases: Liquid, Crystal
Fixed: Pressure, kPa = 100
Property: Mole fraction of isonicotinic acid hydrazide (Liquid); method: Visual
Temperature, K	Mole fraction of isonicotinic acid hydrazide	uncertainty
272.13	0	.0005
324.61	.003	.0005
339.17	.008	.0005
354.01	.014	.0005
360.73	.024	.0005
369.61	.038	.0005
376.98	.049	.0005
381.45	.061	.0005
389.65	.075	.0005
397.47	.098	.0005
402.89	.119	.0005
408.11	.14	.0005
413	.169	.0005
445.84	1	.0005

System: isonicotinic acid hydrazide + 1-octyl-3-methylimidazolium bis[(trifluoromethyl)sulfonyl]imide; phases: Liquid, Crystal
Fixed: Pressure, kPa = 100
Property: Mole fraction of isonicotinic acid hydrazide (Liquid); method: Visual
Temperature, K	Mole fraction of isonicotinic acid hydrazide	uncertainty
325.64	.003	.0005
340.43	.007	.0005
355.31	.014	.0005
361.95	.023	.0005
370.77	.037	.0005
378.02	.047	.0005
382.53	.06	.0005
390.81	.074	.0005
398.72	.097	.0005
404.19	.118	.0005
409.46	.14	.0005
445.84	1	.0005

System: isonicotinic acid hydrazide + 1-decyl-3-methylimidazolium bis(trifluoromethylsulfonyl)amide; phases: Liquid, Crystal
Fixed: Pressure, kPa = 100
Property: Mole fraction of isonicotinic acid hydrazide (Liquid); method: Visual
Temperature, K	Mole fraction of isonicotinic acid hydrazide	uncertainty
326.69	.003	.0005
341.71	.007	.0005
356.62	.013	.0005
363.2	.023	.0005
371.94	.036	.0005
379.07	.046	.0005
383.62	.058	.0005
391.99	.073	.0005
399.97	.096	.0005
405.5	.118	.0005
410.82	.139	.0005
445.84	1	.0005

System: isonicotinic acid hydrazide + 1-decyl-3-methylimidazolium trifluoromethansulfate; phases: Liquid, Crystal
Fixed: Pressure, kPa = 100
Property: Mole fraction of isonicotinic acid hydrazide (Liquid); method: Visual
Temperature, K	Mole fraction of isonicotinic acid hydrazide	uncertainty
314.17	.006	.0005
320.7	.008	.0005
333.76	.02	.0005
341.2	.027	.0005
352.01	.041	.0005
360.91	.058	.0005
366.64	.075	.0005
374.02	.1	.0005
378.94	.121	.0005
383.79	.145	.0005
387.83	.168	.0005
391.69	.205	.0005
396.11	.243	.0005
401.69	.3	.0005
406.42	.35	.0005
445.84	1	.0005
