Measured thermophysical data. Phase behavior of imidazolium and phosphonium tetrafluoroborates with dihydroxy alcohols
Source: Fluid Phase Equilib., 2014, 10.1016/j.fluid.2014.08.028
Compound 1: trihexyl(tetradecyl)-phosphonium tetrafluoroborate, C32H68BF4P, purity 98%
Compound 2: 1-ethyl-3-methylimidazolium tetrafluoroborate, C6H11BF4N2, purity 98%
Compound 3: 1-butyl-3-methylimidazolium tetrafluoroborate, C8H15BF4N2, purity 98.5%
Compound 4: 1,2-ethanediol, C2H6O2, purity 99.8%
Compound 5: 1,2-propanediol, C3H8O2, purity 99.5%
Compound 6: 1,3-butanediol, C4H10O2, purity 99%
Compound 7: 1,2-butanediol, C4H10O2, purity 98%
Compound 8: 2,3-butanediol, isomer not specified, C4H10O2, purity 98%
Compound 9: 1,2-pentanediol, C5H12O2, purity 99.5%
Compound 10: 1,2-hexanediol, C6H14O2, purity 98%
Compound 11: 1,2-butanediol-d2, C4H8D2O2
Compound 12: 1,2-hexanediol-d2, C6H12D2O2

System: 1,2-ethanediol + 1-ethyl-3-methylimidazolium tetrafluoroborate; phases: Liquid mixture 1, Liquid mixture 2
Fixed: Pressure, kPa = 100
Property: Liquid-liquid equilibrium temperature, K (Liquid mixture 1); method: Visual observation
Mole fraction of 1-ethyl-3-methylimidazolium tetrafluoroborate	Liquid-liquid equilibrium temperature, K	uncertainty
.1259	274.78	.1
.1659	276.43	.1
.1883	276.84	.1
.2039	276.98	.1
.2178	277.05	.1
.2421	277.03	.1
.251	277.06	.1
.2612	277.02	.1
.2884	277.01	.1
.3383	276.73	.1
.3675	276.36	.1
.4298	275.19	.1

System: 1,2-propanediol + 1-ethyl-3-methylimidazolium tetrafluoroborate; phases: Liquid mixture 1, Liquid mixture 2
Fixed: Pressure, kPa = 100
Property: Liquid-liquid equilibrium temperature, K (Liquid mixture 1); method: Visual observation
Mole fraction of 1-ethyl-3-methylimidazolium tetrafluoroborate	Liquid-liquid equilibrium temperature, K	uncertainty
.0627	292.96	.1
.0914	296.49	.1
.1144	297.65	.1
.1349	298.18	.1
.159	298.65	.1
.1785	298.85	.1
.192	298.84	.1
.2104	298.81	.1
.2298	298.78	.1
.2626	298.71	.1
.2985	298.48	.1
.317	298.19	.1
.3567	297.49	.1
.4189	295.6	.1
.4746	292.8	.1

System: 1,2-butanediol + 1-ethyl-3-methylimidazolium tetrafluoroborate; phases: Liquid mixture 1, Liquid mixture 2
Fixed: Pressure, kPa = 100
Property: Liquid-liquid equilibrium temperature, K (Liquid mixture 1); method: Visual observation
Mole fraction of 1-ethyl-3-methylimidazolium tetrafluoroborate	Liquid-liquid equilibrium temperature, K	uncertainty
.0622	319.51	.1
.0901	323.29	.1
.1189	325.02	.1
.1348	325.46	.1
.1661	325.88	.1
.1986	325.92	.1
.2314	325.9	.1
.2667	325.89	.1
.2868	325.84	.1
.3065	325.73	.1
.33	325.41	.1
.3559	324.83	.1
.3844	323.63	.1
.4024	322.73	.1
.4594	320.66	.1

System: 1,2-hexanediol + 1-ethyl-3-methylimidazolium tetrafluoroborate; phases: Liquid mixture 1, Liquid mixture 2
Fixed: Pressure, kPa = 100
Property: Liquid-liquid equilibrium temperature, K (Liquid mixture 1); method: Visual observation
Mole fraction of 1-ethyl-3-methylimidazolium tetrafluoroborate	Liquid-liquid equilibrium temperature, K	uncertainty
.1051	371.05	.1
.1342	372.25	.1
.1576	372.75	.1
.1932	373.65	.1
.2046	373.85	.1
.2375	374.25	.1
.2648	374.35	.1
.2736	374.35	.1
.2992	374.25	.1
.3343	374.03	.1
.3711	373.75	.1
.4131	373.35	.1
.4288	373.15	.1
.46	372.35	.1
.4808	371.35	.1

System: 1,2-butanediol-d2 + 1-ethyl-3-methylimidazolium tetrafluoroborate; phases: Liquid mixture 1, Liquid mixture 2
Fixed: Pressure, kPa = 100
Property: Liquid-liquid equilibrium temperature, K (Liquid mixture 1); method: Visual observation
Mole fraction of 1-ethyl-3-methylimidazolium tetrafluoroborate	Liquid-liquid equilibrium temperature, K	uncertainty
.1036	320.74	.1
.133	322.13	.1
.1654	323.05	.1
.2015	323.2	.1
.2132	323.2	.1
.2409	323.24	.1
.2593	323.18	.1
.2678	323.18	.1
.2703	323.17	.1
.2938	323.06	.1
.2978	323.02	.1
.3548	322.51	.1
.4314	320.5	.1

System: 1,2-hexanediol-d2 + 1-ethyl-3-methylimidazolium tetrafluoroborate; phases: Liquid mixture 1, Liquid mixture 2
Fixed: Pressure, kPa = 100
Property: Liquid-liquid equilibrium temperature, K (Liquid mixture 1); method: Visual observation
Mole fraction of 1-ethyl-3-methylimidazolium tetrafluoroborate	Liquid-liquid equilibrium temperature, K	uncertainty
.1027	367.15	.1
.1395	369.15	.1
.1578	369.65	.1
.1935	370.85	.1
.2149	371.15	.1
.2477	371.25	.1
.2587	371.25	.1
.2988	371.15	.1
.319	371.05	.1
.3585	370.95	.1
.3983	370.75	.1
.4857	368.85	.1

System: 1,2-butanediol-d2 + 1-butyl-3-methylimidazolium tetrafluoroborate; phases: Liquid mixture 1, Liquid mixture 2
Fixed: Pressure, kPa = 100
Property: Liquid-liquid equilibrium temperature, K (Liquid mixture 1); method: Visual observation
Mole fraction of 1-butyl-3-methylimidazolium tetrafluoroborate	Liquid-liquid equilibrium temperature, K	uncertainty
.0577	291.39	.1
.1048	295.91	.1
.1286	296.41	.1
.151	297.17	.1
.1719	297.31	.1
.1905	297.33	.1
.2282	297.34	.1
.2565	297.26	.1
.2629	297.22	.1
.2833	297.21	.1
.3152	296.92	.1
.3294	296.63	.1
.3496	296.37	.1
.3754	295.52	.1
.4089	294.81	.1
.4247	294.27	.1

System: 1,2-hexanediol-d2 + 1-butyl-3-methylimidazolium tetrafluoroborate; phases: Liquid mixture 1, Liquid mixture 2
Fixed: Pressure, kPa = 100
Property: Liquid-liquid equilibrium temperature, K (Liquid mixture 1); method: Visual observation
Mole fraction of 1-butyl-3-methylimidazolium tetrafluoroborate	Liquid-liquid equilibrium temperature, K	uncertainty
.0666	332.2	.1
.0883	333.93	.1
.1369	335.97	.1
.1441	336.1	.1
.1669	336.41	.1
.2037	336.49	.1
.2245	336.53	.1
.2348	336.59	.1
.263	336.53	.1
.2865	336.44	.1
.3401	335.88	.1
.3529	335.72	.1
.4117	334.21	.1
.447	332.97	.1

System: 1,2-propanediol + trihexyl(tetradecyl)-phosphonium tetrafluoroborate; phases: Liquid mixture 1, Liquid mixture 2
Fixed: Pressure, kPa = 100
Property: Liquid-liquid equilibrium temperature, K (Liquid mixture 1); method: Visual observation
Mole fraction of trihexyl(tetradecyl)-phosphonium tetrafluoroborate	Liquid-liquid equilibrium temperature, K	uncertainty
.0241	362.35	.1
.0411	365.65	.1
.0505	366.1	.1
.0622	366.15	.1
.0717	366.25	.1
.0862	366.15	.1
.0951	366.15	.1
.1041	365.85	.1
.1192	365.45	.1
.1395	364.05	.1
.1483	363.3	.1

System: 1,2-butanediol + trihexyl(tetradecyl)-phosphonium tetrafluoroborate; phases: Liquid mixture 1, Liquid mixture 2
Fixed: Pressure, kPa = 100
Property: Liquid-liquid equilibrium temperature, K (Liquid mixture 1); method: Visual observation
Mole fraction of trihexyl(tetradecyl)-phosphonium tetrafluoroborate	Liquid-liquid equilibrium temperature, K	uncertainty
.024	305.29	.1
.0293	306.77	.1
.0384	308.51	.1
.0411	309.3	.1
.0494	310.22	.1
.06	310.64	.1
.0678	310.58	.1
.0758	310.53	.1
.0862	310.34	.1
.0926	310.32	.1
.0952	310.29	.1
.107	309.94	.1
.1116	309.91	.1
.1268	309.33	.1
.1304	309.26	.1
.1349	309.14	.1
.1453	308.71	.1
.1534	308.06	.1
.1676	307.21	.1

System: 1,3-butanediol + trihexyl(tetradecyl)-phosphonium tetrafluoroborate; phases: Liquid mixture 1, Liquid mixture 2
Fixed: Pressure, kPa = 100
Property: Liquid-liquid equilibrium temperature, K (Liquid mixture 1); method: Visual observation
Mole fraction of trihexyl(tetradecyl)-phosphonium tetrafluoroborate	Liquid-liquid equilibrium temperature, K	uncertainty
.0304	353.69	.1
.0358	355.25	.1
.0461	356.62	.1
.0502	357	.1
.0581	357.52	.1
.0656	357.59	.1
.0692	357.65	.1
.0742	357.55	.1
.0843	357.44	.1
.0855	357.41	.1
.096	357.27	.1
.1043	357.09	.1
.1062	357.07	.1
.1144	356.57	.1
.1289	356.13	.1
.1357	355.68	.1
.1461	355.35	.1
.1497	355.04	.1
.1553	354.69	.1

System: 2,3-butanediol, isomer not specified + trihexyl(tetradecyl)-phosphonium tetrafluoroborate; phases: Liquid mixture 1, Liquid mixture 2
Fixed: Pressure, kPa = 100
Property: Liquid-liquid equilibrium temperature, K (Liquid mixture 1); method: Visual observation
Mole fraction of trihexyl(tetradecyl)-phosphonium tetrafluoroborate	Liquid-liquid equilibrium temperature, K	uncertainty
.0316	317.79	.1
.0342	318.81	.1
.0394	319.34	.1
.0446	319.85	.1
.0518	320.09	.1
.0588	320.18	.1
.065	320.15	.1
.0718	320.1	.1
.0755	320.09	.1
.0812	320.08	.1
.0935	319.84	.1
.1027	319.79	.1
.1114	319.67	.1
.1263	319.2	.1
.1326	319	.1
.1472	318.6	.1
.1613	317.32	.1

System: 1,2-pentanediol + trihexyl(tetradecyl)-phosphonium tetrafluoroborate; phases: Liquid mixture 1, Liquid mixture 2
Fixed: Pressure, kPa = 100
Property: Liquid-liquid equilibrium temperature, K (Liquid mixture 1); method: Visual observation
Mole fraction of trihexyl(tetradecyl)-phosphonium tetrafluoroborate	Liquid-liquid equilibrium temperature, K	uncertainty
.0416	277.94	.1
.0487	278.54	.1
.0509	279.03	.1
.0539	279.2	.1
.0603	279.39	.1
.067	279.52	.1
.0705	279.56	.1
.0717	279.56	.1
.0785	279.57	.1
.0842	279.58	.1
.0908	279.58	.1
.094	279.57	.1
.1078	279.39	.1
.1196	279.25	.1
.1246	279.17	.1
.1389	279.04	.1
.1461	278.93	.1
.1597	278.6	.1
.1717	278.15	.1
.1783	277.75	.1

System: 1,2-butanediol-d2 + trihexyl(tetradecyl)-phosphonium tetrafluoroborate; phases: Liquid mixture 1, Liquid mixture 2
Fixed: Pressure, kPa = 100
Property: Liquid-liquid equilibrium temperature, K (Liquid mixture 1); method: Visual observation
Mole fraction of trihexyl(tetradecyl)-phosphonium tetrafluoroborate	Liquid-liquid equilibrium temperature, K	uncertainty
.042	308.21	.1
.051	309.29	.1
.055	309.67	.1
.085	310.05	.1
.091	310.06	.1
.096	310.09	.1
.125	309.74	.1
.156	309.05	.1
.177	308.45	.1
