Measured thermophysical data. Study of isobaric vapour liquid equilibrium of some cyclic ethers with  1-chloropropane: Experimental results and SAFT-VR modelling
Source: Fluid Phase Equilib., 2009, 10.1016/j.fluid.2009.01.010
Compound 1: 1,3-dioxacyclopentane, C3H6O2, purity 99%
Compound 2: 1,4-dioxane, C4H8O2, purity 99%
Compound 3: tetrahydrofuran, C4H8O, purity 99.5%
Compound 4: tetrahydropyran, C5H10O, purity 99%
Compound 5: 1-chloropropane, C3H7Cl, purity 99%

System: 1,3-dioxacyclopentane; phases: Liquid, Gas
Property: Normal boiling temperature, K (Liquid); method: Ebulliometric method (Recirculating still)
Normal boiling temperature, K	uncertainty
348.55	.01

System: 1,4-dioxane; phases: Liquid, Gas
Property: Normal boiling temperature, K (Liquid); method: Ebulliometric method (Recirculating still)
Normal boiling temperature, K	uncertainty
374.52	.01

System: tetrahydrofuran; phases: Liquid, Gas
Property: Normal boiling temperature, K (Liquid); method: Ebulliometric method (Recirculating still)
Normal boiling temperature, K	uncertainty
339.12	.01

System: tetrahydropyran; phases: Liquid, Gas
Property: Normal boiling temperature, K (Liquid); method: Ebulliometric method (Recirculating still)
Normal boiling temperature, K	uncertainty
361.23	.01

System: 1-chloropropane; phases: Liquid, Gas
Property: Normal boiling temperature, K (Liquid); method: Ebulliometric method (Recirculating still)
Normal boiling temperature, K	uncertainty
319.6	.01

System: 1-chloropropane + 1,3-dioxacyclopentane; phases: Liquid, Gas
Fixed: Pressure, kPa = 40
Property: Boiling temperature at pressure P, K (Liquid); method: Ebulliometric method (Recirculating still)
Mole fraction of 1,3-dioxacyclopentane	Boiling temperature at pressure P, K	uncertainty
.0704	295.92	.01
.1309	296.84	.01
.2212	298.04	.01
.3188	299.5	.01
.4511	301.75	.01
.5107	303.13	.01
.6129	305.25	.01
.7197	308.52	.01
.7997	311.18	.01
.901	316.27	.01
.9419	318.48	.01

System: 1-chloropropane + 1,3-dioxacyclopentane; phases: Gas, Liquid
Fixed: Pressure, kPa = 40
Property: Mole fraction of 1,3-dioxacyclopentane (Gas); method: Other
Mole fraction of 1,3-dioxacyclopentane	Mole fraction of 1,3-dioxacyclopentane	uncertainty
.0704	.0401	.01
.1309	.0676	.01
.2212	.1156	.01
.3188	.1594	.01
.4511	.212	.01
.5107	.2532	.01
.6129	.315	.01
.7197	.4186	.01
.7997	.5044	.01
.901	.6935	.01
.9419	.8052	.01

System: 1-chloropropane + 1,3-dioxacyclopentane; phases: Liquid, Gas
Fixed: Pressure, kPa = 70
Property: Boiling temperature at pressure P, K (Liquid); method: Ebulliometric method (Recirculating still)
Mole fraction of 1,3-dioxacyclopentane	Boiling temperature at pressure P, K	uncertainty
.0655	310.21	.01
.1213	311.11	.01
.2166	312.22	.01
.3132	314.29	.01
.4281	316.41	.01
.5181	318.15	.01
.6063	320.28	.01
.695	322.82	.01
.8017	326.35	.01
.9063	331.3	.01
.9428	333.66	.01

System: 1-chloropropane + 1,3-dioxacyclopentane; phases: Gas, Liquid
Fixed: Pressure, kPa = 70
Property: Mole fraction of 1,3-dioxacyclopentane (Gas); method: Speed of sound calibration data
Mole fraction of 1,3-dioxacyclopentane	Mole fraction of 1,3-dioxacyclopentane	uncertainty
.0655	.0376	.01
.1213	.0676	.01
.2166	.1158	.01
.3132	.1648	.01
.4281	.2238	.01
.5181	.2766	.01
.6063	.3429	.01
.695	.4168	.01
.8017	.5419	.01
.9063	.7218	.01
.9428	.8188	.01

System: 1-chloropropane + 1,3-dioxacyclopentane; phases: Liquid, Gas
Fixed: Pressure, kPa = 101.33
Property: Boiling temperature at pressure P, K (Liquid); method: Ebulliometric method (Recirculating still)
Mole fraction of 1,3-dioxacyclopentane	Boiling temperature at pressure P, K	uncertainty
.0655	320.93	.01
.124	321.71	.01
.212	323	.01
.3138	324.68	.01
.421	326.81	.01
.5164	328.74	.01
.6014	330.79	.01
.6903	333.63	.01
.7972	337.27	.01
.8981	341.66	.01
.94	344.27	.01

System: 1-chloropropane + 1,3-dioxacyclopentane; phases: Gas, Liquid
Fixed: Pressure, kPa = 101.33
Property: Mole fraction of 1,3-dioxacyclopentane (Gas); method: Speed of sound calibration data
Mole fraction of 1,3-dioxacyclopentane	Mole fraction of 1,3-dioxacyclopentane	uncertainty
.0655	.0455	.01
.124	.0732	.01
.212	.1178	.01
.3138	.1715	.01
.421	.2335	.01
.5164	.2912	.01
.6014	.3534	.01
.6903	.4352	.01
.7972	.557	.01
.8981	.7228	.01
.94	.8163	.01

System: tetrahydrofuran + 1-chloropropane; phases: Liquid, Gas
Fixed: Pressure, kPa = 40
Property: Boiling temperature at pressure P, K (Liquid); method: Ebulliometric method (Recirculating still)
Mole fraction of tetrahydrofuran	Boiling temperature at pressure P, K	uncertainty
.0437	295.65	.01
.0966	296.71	.01
.2056	298.21	.01
.3047	299.77	.01
.4022	301.62	.01
.5075	303.58	.01
.6174	305.84	.01
.7161	307.74	.01
.8111	309.63	.01
.9003	311.31	.01
.9485	312.46	.01

System: tetrahydrofuran + 1-chloropropane; phases: Gas, Liquid
Fixed: Pressure, kPa = 40
Property: Mole fraction of tetrahydrofuran (Gas); method: Speed of sound calibration data
Mole fraction of tetrahydrofuran	Mole fraction of tetrahydrofuran	uncertainty
.0437	.0153	.01
.0966	.0405	.01
.2056	.0997	.01
.3047	.1672	.01
.4022	.2425	.01
.5075	.3346	.01
.6174	.4566	.01
.7161	.5772	.01
.8111	.6999	.01
.9003	.8415	.01
.9485	.92	.01

System: tetrahydrofuran + 1-chloropropane; phases: Liquid, Gas
Fixed: Pressure, kPa = 70
Property: Boiling temperature at pressure P, K (Liquid); method: Ebulliometric method (Recirculating still)
Mole fraction of tetrahydrofuran	Boiling temperature at pressure P, K	uncertainty
.0431	310.2	
.1232	311.53	
.1949	312.51	
.2993	314.61	
.3945	315.95	
.5001	318.18	
.6101	320.38	
.7125	322.44	
.7947	324.18	
.8986	326	
.9515	327.21	

System: tetrahydrofuran + 1-chloropropane; phases: Gas, Liquid
Fixed: Pressure, kPa = 70
Property: Mole fraction of tetrahydrofuran (Gas); method: Speed of sound calibration data
Mole fraction of tetrahydrofuran	Mole fraction of tetrahydrofuran	uncertainty
.0431	.0185	.01
.1232	.0563	.01
.1949	.0971	.01
.2993	.1687	.01
.3945	.2415	.01
.5001	.3448	.01
.6101	.4608	.01
.7125	.5781	.01
.7947	.6958	.01
.8986	.8437	.01
.9515	.9298	.01

System: tetrahydrofuran + 1-chloropropane; phases: Liquid, Gas
Fixed: Pressure, kPa = 101.33
Property: Boiling temperature at pressure P, K (Liquid); method: Ebulliometric method (Recirculating still)
Mole fraction of tetrahydrofuran	Boiling temperature at pressure P, K	uncertainty
.0468	320.72	.01
.0914	321.68	.01
.2112	323.42	.01
.3062	325.45	.01
.3974	327.13	.01
.5071	329.01	.01
.6097	331.45	.01
.7183	333.63	.01
.8027	335.11	.01
.9033	337.41	.01
.9451	338.32	.01

System: tetrahydrofuran + 1-chloropropane; phases: Gas, Liquid
Fixed: Pressure, kPa = 101.33
Property: Mole fraction of tetrahydrofuran (Gas); method: Speed of sound calibration data
Mole fraction of tetrahydrofuran	Mole fraction of tetrahydrofuran	uncertainty
.0468	.0158	.01
.0914	.0384	.01
.2112	.1117	.01
.3062	.1831	.01
.3974	.2576	.01
.5071	.3589	.01
.6097	.4777	.01
.7183	.6046	.01
.8027	.7129	.01
.9033	.8547	.01
.9451	.9166	.01

System: tetrahydropyran + 1-chloropropane; phases: Liquid, Gas
Fixed: Pressure, kPa = 40
Property: Mole fraction of tetrahydropyran (Liquid); method: Other
Temperature, K	Mole fraction of tetrahydropyran	uncertainty
295.75	.0501	.01
297.73	.1139	.01
299.28	.1984	.01
301.65	.2895	.01
305.22	.4102	.01
307.16	.4803	.01
311.16	.5942	.01
320.39	.7909	.01
324.15	.8558	.01
327.84	.9138	.01
330.86	.9669	.01

System: tetrahydropyran + 1-chloropropane; phases: Gas, Liquid
Fixed: Pressure, kPa = 40
Property: Mole fraction of tetrahydropyran (Gas); method: Speed of sound calibration data
Temperature, K	Mole fraction of tetrahydropyran	uncertainty
295.75	.0108	.01
297.73	.03	.01
299.28	.0504	.01
301.65	.0703	.01
305.22	.1251	.01
307.16	.1799	.01
311.16	.2557	.01
320.39	.4828	.01
324.15	.5919	.01
327.84	.7313	.01
330.86	.8801	.01

System: tetrahydropyran + 1-chloropropane; phases: Liquid, Gas
Fixed: Pressure, kPa = 70
Property: Boiling temperature at pressure P, K (Liquid); method: Ebulliometric method (Recirculating still)
Mole fraction of tetrahydropyran	Boiling temperature at pressure P, K	uncertainty
.0626	310.52	.01
.105	311.55	.01
.2022	313.83	.01
.3027	316.57	.01
.4054	319.85	.01
.4887	322.74	.01
.5812	325.9	.01
.6835	330.35	.01
.7867	335.18	.01
.8693	339.04	.01
.9311	342.81	.01

System: tetrahydropyran + 1-chloropropane; phases: Gas, Liquid
Fixed: Pressure, kPa = 70
Property: Mole fraction of tetrahydropyran (Gas); method: Speed of sound calibration data
Mole fraction of tetrahydropyran	Mole fraction of tetrahydropyran	uncertainty
.0626	.0211	.01
.105	.0312	.01
.2022	.0579	.01
.3027	.0956	.01
.4054	.1482	.01
.4887	.1932	.01
.5812	.2624	.01
.6835	.3675	.01
.7867	.4937	.01
.8693	.6346	.01
.9311	.7699	.01

System: tetrahydropyran + 1-chloropropane; phases: Liquid, Gas
Fixed: Pressure, kPa = 101.3
Property: Boiling temperature at pressure P, K (Liquid); method: Ebulliometric method (Recirculating still)
Mole fraction of tetrahydropyran	Boiling temperature at pressure P, K	uncertainty
.0469	320.82	.01
.1012	321.94	.01
.2089	325.2	.01
.2782	327.29	.01
.473	334.18	.01
.5968	339	.01
.7799	346.66	.01
.84	349.35	.01
.9068	353.89	.01
.969	358.36	.01

System: tetrahydropyran + 1-chloropropane; phases: Gas, Liquid
Fixed: Pressure, kPa = 101.3
Property: Mole fraction of tetrahydropyran (Gas); method: Speed of sound calibration data
Mole fraction of tetrahydropyran	Mole fraction of tetrahydropyran	uncertainty
.0469	.0157	.01
.1012	.0302	.01
.2089	.0686	.01
.2782	.0972	.01
.473	.1885	.01
.5968	.3015	.01
.7799	.5106	.01
.84	.6069	.01
.9068	.7129	.01
.969	.8769	.01

System: 1,4-dioxane + 1-chloropropane; phases: Liquid, Gas
Fixed: Pressure, kPa = 40
Property: Boiling temperature at pressure P, K (Liquid); method: Ebulliometric method (Recirculating still)
Mole fraction of 1,4-dioxane	Boiling temperature at pressure P, K	uncertainty
.0603	296.32	.01
.2873	301.75	.01
.3442	303.03	.01
.4055	304.9	.01
.5428	310.63	.01
.6056	311.89	.01
.748	319.93	.01
.8146	324.56	.01
.8867	330.52	.01
.9366	336.51	.01
.97	341.47	.01

System: 1,4-dioxane + 1-chloropropane; phases: Gas, Liquid
Fixed: Pressure, kPa = 40
Property: Mole fraction of 1,4-dioxane (Gas); method: Speed of sound calibration data
Mole fraction of 1,4-dioxane	Mole fraction of 1,4-dioxane	uncertainty
.0603	.0132	.01
.2873	.0556	.01
.3442	.0709	.01
.4055	.0926	.01
.5428	.135	.01
.6056	.1635	.01
.748	.2653	.01
.8146	.3517	.01
.8867	.4882	.01
.9366	.6456	.01
.97	.8041	.01

System: 1,4-dioxane + 1-chloropropane; phases: Liquid, Gas
Fixed: Pressure, kPa = 70
Property: Boiling temperature at pressure P, K (Liquid); method: Ebulliometric method (Recirculating still)
Mole fraction of 1,4-dioxane	Boiling temperature at pressure P, K	uncertainty
.0576	310.95	.01
.272	316.34	.01
.3347	317.68	.01
.4141	320.55	.01
.524	324.63	.01
.6012	327.95	.01
.7287	334.58	.01
.81	340.26	.01
.8929	347.83	.01
.9347	352.39	.01
.9701	357.74	.01

System: 1,4-dioxane + 1-chloropropane; phases: Gas, Liquid
Fixed: Pressure, kPa = 70
Property: Mole fraction of 1,4-dioxane (Gas); method: Speed of sound calibration data
Mole fraction of 1,4-dioxane	Mole fraction of 1,4-dioxane	uncertainty
.0576	.0185	.01
.272	.062	.01
.3347	.078	.01
.4141	.0992	.01
.524	.1407	.01
.6012	.1852	.01
.7287	.2716	.01
.81	.3683	.01
.8929	.531	.01
.9347	.6568	.01
.9701	.8216	.01

System: 1,4-dioxane + 1-chloropropane; phases: Liquid, Gas
Fixed: Pressure, kPa = 101.33
Property: Boiling temperature at pressure P, K (Liquid); method: Ebulliometric method (Recirculating still)
Mole fraction of 1,4-dioxane	Boiling temperature at pressure P, K	uncertainty
.0525	321.39	.01
.259	326.97	.01
.3275	328.86	.01
.401	330.82	.01
.5106	334.7	.01
.6077	339.78	.01
.6984	343.71	.01
.7891	349.81	.01
.8809	358.16	.01
.9427	365.22	.01
.9702	369.37	.01

System: 1,4-dioxane + 1-chloropropane; phases: Gas, Liquid
Fixed: Pressure, kPa = 101.33
Property: Mole fraction of 1,4-dioxane (Gas); method: Speed of sound calibration data
Mole fraction of 1,4-dioxane	Mole fraction of 1,4-dioxane	uncertainty
.0525	.0194	.01
.259	.0603	.01
.3275	.08	.01
.401	.1041	.01
.5106	.1325	.01
.6077	.2032	.01
.6984	.2629	.01
.7891	.3529	.01
.8809	.5262	.01
.9427	.7068	.01
.9702	.831	.01
