Measured thermophysical data. (Liquid + liquid) equilibria of the quaternary sysytem methanol + isooctane + cyclohexane + benzene at T = 303.15 K
Source: Fluid Phase Equilib., 2010, 10.1016/j.fluid.2009.10.007
Compound 1: methanol, CH4O, purity 99.8%
Compound 2: cyclohexane, C6H12, purity 99.8%
Compound 3: 2,2,4-trimethylpentane, C8H18, purity 99.8%

System: methanol + cyclohexane + 2,2,4-trimethylpentane; phases: Liquid mixture 2, Liquid mixture 1
Fixed: Pressure, kPa = 101.325
Fixed: Temperature, K = 303.15
Property: Mass fraction of methanol (Liquid mixture 2); method: Chromatography
Property: Mass fraction of 2,2,4-trimethylpentane (Liquid mixture 1); method: Chromatography
Property: Mass fraction of methanol (Liquid mixture 1); method: Chromatography
Mass fraction of 2,2,4-trimethylpentane	Mass fraction of methanol	uncertainty	Mass fraction of 2,2,4-trimethylpentane	uncertainty	Mass fraction of methanol	uncertainty
0	.081	.001	0	.001	.608	.001
.689	.089	.001	.32	.001	.588	.001
.801	.084	.001	.341	.001	.6	.001
.926	.074	.001	.379	.001	.621	.001
.077	.09	.001	.021	.001	.598	.001
.16	.096	.001	.046	.001	.593	.001
.222	.098	.001	.078	.001	.584	.001
.296	.098	.001	.124	.001	.574	.001
.347	.102	.001	.155	.001	.573	.001
.45	.106	.001	.209	.001	.568	.001
.53	.102	.001	.259	.001	.573	.001
.628	.092	.001	.299	.001	.583	.001
