Measured thermophysical data. Low transition temperature mixtures (LTTMs) as novel entrainers in extractive distillation
Source: Fluid Phase Equilib., 2015, 10.1016/j.fluid.2014.10.044
Compound 1: ethanol, C2H6O, purity 99.5%
Compound 2: glycolic acid, C2H4O3, purity 99%
Compound 3: dl-malic acid, C4H6O5, purity 99%
Compound 4: choline chloride, C5H14ClNO, purity 98%
Compound 5: L-lactic acid, C3H6O3, purity 99%
Compound 6: water, H2O, purity 99.9%

System: choline chloride + L-lactic acid + water; phases: Liquid, Gas
Fixed: Solvent: Mole fraction of choline chloride = .333
Property: Boiling temperature at pressure P, K (Liquid); method: Ebulliometric method (Recirculating still)
Mole fraction of water	Pressure, kPa	Boiling temperature at pressure P, K	uncertainty
.8	6.3	313.8	.1
.8	8.7	318.5	.1
.8	11.1	323.5	.1
.8	14.3	328.3	.1
.8	18	333	.1
.8	22.6	337.5	.1
.8	28.4	342.6	.1
.8	35.3	347.7	.1
.8	43.5	352.5	.1
.8	53.4	357.3	.1
.8	64.6	362.3	.1
.8	78.2	367.4	.1
.8	93.9	372.6	.1
.9	10	320.5	.1
.9	14.9	328.2	.1
.9	20	334.2	.1
.9	30	342.4	.1
.9	40	349.1	.1
.9	50	354.6	.1
.9	60	359.2	.1
.9	70	363.2	.1
.9	80	366.7	.1
.9	90	370	.1
.9	100	371.6	.1

System: ethanol + choline chloride + L-lactic acid; phases: Liquid, Gas
Fixed: Solvent: Mole fraction of choline chloride = .333
Property: Boiling temperature at pressure P, K (Liquid); method: Ebulliometric method (Recirculating still)
Mole fraction of ethanol	Pressure, kPa	Boiling temperature at pressure P, K	uncertainty
.8	17.8	313.1	.1
.8	23.4	318.5	.1
.8	29.5	323.1	.1
.8	37.9	328.3	.1
.8	46.4	332.8	.1
.8	55.8	336.9	.1
.8	63.8	340	.1
.8	74.6	343.7	.1
.8	82.3	346.3	.1
.8	93.5	349.3	.1
.8	101.5	351.4	.1
.9	5	292.8	.1
.9	10	302.9	.1
.9	15	309.8	.1
.9	20	315.4	.1
.9	30	323.5	.1
.9	40	329.7	.1
.9	50	334.6	.1
.9	59.9	338.7	.1
.9	70	342.3	.1
.9	80	345.5	.1
.9	90	348.4	.1
.9	100	351	.1

System: choline chloride + dl-malic acid + water; phases: Liquid, Gas
Fixed: Solvent: Mole fraction of choline chloride = .5
Property: Boiling temperature at pressure P, K (Liquid); method: Ebulliometric method (Recirculating still)
Mole fraction of water	Pressure, kPa	Boiling temperature at pressure P, K	uncertainty
.8	6.3	314.5	.1
.8	8.7	319.5	.1
.8	11.1	324.4	.1
.8	14.3	329.4	.1
.8	18	334.4	.1
.8	22.6	339.1	.1
.8	28.4	344.5	.1
.8	35.3	349.4	.1
.8	43.4	354.1	.1
.8	53.2	359.2	.1
.8	64.2	363.3	.1
.8	78.2	368.7	.1
.8	93.8	373.5	.1
.9	6.2	312.5	.1
.9	8.7	317.5	.1
.9	11	322.7	.1
.9	14.2	327.7	.1
.9	18	332	.1
.9	22.6	337.3	.1
.9	28.3	342.6	.1
.9	35.4	347.9	.1
.9	43	353	.1
.9	53.3	357.4	.1
.9	64.3	362.3	.1
.9	78	367.4	.1
.9	93.6	372.1	.1

System: ethanol + choline chloride + dl-malic acid; phases: Liquid, Gas
Fixed: Solvent: Mole fraction of choline chloride = .5
Property: Boiling temperature at pressure P, K (Liquid); method: Ebulliometric method (Recirculating still)
Mole fraction of ethanol	Pressure, kPa	Boiling temperature at pressure P, K	uncertainty
.8	10.1	303	.1
.8	15	309.9	.1
.8	20	315.4	.1
.8	25	319.8	.1
.8	30	323.5	.1
.8	35	326.8	.1
.8	45	332.2	.1
.8	55	336.8	.1
.8	65	340.6	.1
.8	75	344	.1
.8	85	347	.1
.9	4.9	291.7	.1
.9	10	303.4	.1
.9	15	311.1	.1
.9	20	315.5	.1
.9	30	323.6	.1
.9	40	329.7	.1
.9	50	334.6	.1
.9	60	338.7	.1
.9	70	342.4	.1
.9	79.9	345.5	.1
.9	89.9	348.4	.1
.9	99.7	351	.1

System: choline chloride + glycolic acid + water; phases: Liquid, Gas
Property: Boiling temperature at pressure P, K (Liquid); method: Ebulliometric method (Recirculating still)
Mole fraction of water	Pressure, kPa	Solvent: Mole fraction of choline chloride	Boiling temperature at pressure P, K	uncertainty
.8	5	.5	309.4	.1
.8	10	.5	322.5	.1
.8	15	.5	328.7	.1
.8	20	.5	333	.1
.8	30	.5	341	.1
.8	40	.5	346.2	.1
.8	50	.5	351	.1
.8	60	.5	354.8	.1
.8	70	.5	358	.1
.8	79.9	.5	359.9	.1
.8	90	.5	361.3	.1
.9	5	.5	308.9	.1
.9	10	.5	321.4	.1
.9	15	.5	329.8	.1
.9	20	.5	335.2	.1
.9	30	.5	343.4	.1
.9	40	.5	349.4	.1
.9	50	.5	354.5	.1
.9	60	.5	359.1	.1
.9	70	.5	362.5	.1
.9	80	.5	366.3	.1
.9	90	.5	368.1	.1
.9	101.3	.5	370.9	.1
.8	5	.25	310.1	.1
.8	10	.25	323.4	.1
.8	15	.25	330.5	.1
.8	20	.25	335.2	.1
.8	30	.25	344.1	.1
.8	40	.25	349.3	.1
.8	50	.25	354.6	.1
.8	59.9	.25	359	.1
.8	70	.25	362.9	.1
.8	80	.25	366.6	.1
.8	93	.25	369.7	.1
.8	100	.25	372.6	.1
.9	5	.25	308	.1
.9	10	.25	320.4	.1
.9	15	.25	328.8	.1
.9	20	.25	333.9	.1
.9	25	.25	338.8	.1
.9	30	.25	342.7	.1
.9	40	.25	349.1	.1
.9	50	.25	354.6	.1
.9	60	.25	358.4	.1
.9	70	.25	362.5	.1
.9	80	.25	365.3	.1

System: ethanol + choline chloride + glycolic acid; phases: Liquid, Gas
Property: Boiling temperature at pressure P, K (Liquid); method: Ebulliometric method (Recirculating still)
Mole fraction of ethanol	Pressure, kPa	Solvent: Mole fraction of choline chloride	Boiling temperature at pressure P, K	uncertainty
.8	5	.5	293	.1
.8	9.9	.5	303.7	.1
.8	15	.5	310	.1
.8	20	.5	315.4	.1
.8	30	.5	323.5	.1
.8	40	.5	329.6	.1
.8	50	.5	334.5	.1
.8	60	.5	338.7	.1
.8	70	.5	342.3	.1
.8	79.9	.5	345.5	.1
.8	90	.5	348.4	.1
.8	100	.5	351	.1
.9	5	.5	292.2	.1
.9	10	.5	302.7	.1
.9	15	.5	310	.1
.9	20	.5	315.4	.1
.9	25	.5	319.9	.1
.9	30	.5	323.6	.1
.9	40	.5	329.7	.1
.9	50	.5	334.6	.1
.9	60	.5	338.8	.1
.9	70	.5	342.4	.1
.9	80	.5	345.6	.1
.9	90	.5	348.5	.1
.8	4.9	.25	293.3	.1
.8	10	.25	305	.1
.8	15	.25	310.8	.1
.8	20	.25	315.6	.1
.8	30.1	.25	323.7	.1
.8	40	.25	329.7	.1
.8	50	.25	334.6	.1
.8	60	.25	338.8	.1
.8	69.9	.25	342.4	.1
.8	79.9	.25	345.6	.1
.8	89.9	.25	348.5	.1
.8	100	.25	351.2	.1
.9	5	.25	292.1	.1
.9	10	.25	303.5	.1
.9	15	.25	310.3	.1
.9	20	.25	315.7	.1
.9	25	.25	319.9	.1
.9	30	.25	323.6	.1
.9	40	.25	329.7	.1
.9	50	.25	334.6	.1
.9	60	.25	338.7	.1
.9	70	.25	342.4	.1
.9	80	.25	345.6	.1
.9	90	.25	348.4	.1
.9	101.3	.25	351.4	.1

System: choline chloride + glycolic acid; phases: Liquid
Fixed: Pressure, kPa = 101
Property: Mass density, kg/m3 (Liquid); method: Vibrating tube method
Temperature, K	Mole fraction of choline chloride	Mass density, kg/m3	uncertainty
298.15	.5	1197.6	
298.15	.25	1266.5	

System: choline chloride + glycolic acid; phases: Liquid
Fixed: Pressure, kPa = 101
Fixed: Temperature, K = 298.15
Property: Viscosity, Pa*s (Liquid); method: Concentric cylinders viscometry
Mole fraction of choline chloride	Viscosity, Pa*s	uncertainty
.5	.80376	.0080376
.25	.31121	.0031121
