Measured thermophysical data. Speed of sound and thermodynamic properties of ternary liquid mixture octane + dodecane + hexadecane
Source: Fluid Phase Equilib., 2015, 10.1016/j.fluid.2015.07.008
Compound 1: octane, C8H18, purity 99%
Compound 2: dodecane, C12H26, purity 99%
Compound 3: hexadecane, C16H34, purity 99%

System: octane + dodecane + hexadecane; phases: Liquid
Property: Speed of sound, m/s (Liquid); method: time of flight with fixed path interferometer
Temperature, K	Pressure, kPa	Mole fraction of octane	Mole fraction of dodecane	Speed of sound, m/s	uncertainty
298.15	100	.125	.125	1319.9	1.3199
333.15	100	.125	.125	1191.4	1.1914
373.15	100	.125	.125	1054.4	1.0544
393.15	100	.125	.125	989.4	.9894
393.15	10100	.125	.125	1068.5	1.0685
433.15	10100	.125	.125	957	.957
298.15	20100	.125	.125	1426.1	1.4261
333.15	20100	.125	.125	1311.6	1.3116
373.15	20100	.125	.125	1192.4	1.1924
393.15	20100	.125	.125	1137.2	1.1372
433.15	20100	.125	.125	1034.3	1.0343
333.15	40100	.125	.125	1412	1.412
373.15	40100	.125	.125	1303.9	1.3039
393.15	40100	.125	.125	1254.1	1.2541
433.15	40100	.125	.125	1162.5	1.1625
333.15	60100	.125	.125	1499.4	1.4994
373.15	60100	.125	.125	1398.9	1.3989
393.15	60100	.125	.125	1353	1.353
433.15	60100	.125	.125	1268.6	1.2686
333.15	80100	.125	.125	1578.1	1.5781
373.15	80100	.125	.125	1483.2	1.4832
393.15	80100	.125	.125	1439.9	1.4399
433.15	80100	.125	.125	1360.5	1.3605
333.15	100100	.125	.125	1650.1	1.6501
373.15	100100	.125	.125	1559	1.559
393.15	100100	.125	.125	1517.5	1.5175
433.15	100100	.125	.125	1442.4	1.4424
298.15	100	.75	.125	1218.6	1.2186
333.15	100	.75	.125	1083.3	1.0833
373.15	100	.75	.125	934.2	.9342
393.15	100	.75	.125	862.1	.8621
433.15	10100	.75	.125	838.9	.8389
298.15	20100	.75	.125	1340.5	1.3405
333.15	20100	.75	.125	1221.2	1.2212
373.15	20100	.75	.125	1096.6	1.0966
393.15	20100	.75	.125	1038.7	1.0387
433.15	20100	.75	.125	930.9	.9309
333.15	40100	.75	.125	1332.7	1.3327
373.15	40100	.75	.125	1221.2	1.2212
393.15	40100	.75	.125	1170.1	1.1701
433.15	40100	.75	.125	1076	1.076
333.15	60100	.75	.125	1428.2	1.4282
373.15	60100	.75	.125	1325.1	1.3251
393.15	60100	.75	.125	1278.2	1.2782
433.15	60100	.75	.125	1192.2	1.1922
333.15	80100	.75	.125	1512.3	1.5123
373.15	80100	.75	.125	1415.4	1.4154
393.15	80100	.75	.125	1371.5	1.3715
433.15	80100	.75	.125	1290.9	1.2909
333.15	100100	.75	.125	1588	1.588
373.15	100100	.75	.125	1495.9	1.4959
393.15	100100	.75	.125	1454.5	1.4545
433.15	100100	.75	.125	1378	1.378
298.15	100	.25	.25	1296.5	1.2965
333.15	100	.25	.25	1166.4	1.1664
373.15	100	.25	.25	1026.8	1.0268
393.15	100	.25	.25	960.6	.9606
393.15	10100	.25	.25	1043.4	1.0434
433.15	10100	.25	.25	929.5	.9295
298.15	20100	.25	.25	1406.6	1.4066
333.15	20100	.25	.25	1290.5	1.2905
373.15	20100	.25	.25	1170.1	1.1701
393.15	20100	.25	.25	1114.4	1.1144
433.15	20100	.25	.25	1010.3	1.0103
333.15	40100	.25	.25	1393.5	1.3935
373.15	40100	.25	.25	1284.6	1.2846
393.15	40100	.25	.25	1234.7	1.2347
433.15	40100	.25	.25	1142.3	1.1423
333.15	60100	.25	.25	1483	1.483
373.15	60100	.25	.25	1381.7	1.3817
393.15	60100	.25	.25	1335.6	1.3356
433.15	60100	.25	.25	1250.7	1.2507
333.15	80100	.25	.25	1563	1.563
373.15	80100	.25	.25	1467.1	1.4671
393.15	80100	.25	.25	1424.2	1.4242
433.15	80100	.25	.25	1344	1.344
333.15	100100	.25	.25	1636.1	1.6361
373.15	100100	.25	.25	1544.2	1.5442
393.15	100100	.25	.25	1503.4	1.5034
433.15	100100	.25	.25	1427.2	1.4272
298.15	100	.5	.25	1257.9	1.2579
333.15	100	.5	.25	1124.4	1.1244
373.15	100	.5	.25	980.2	.9802
393.15	100	.5	.25	911	.911
393.15	10100	.5	.25	1000.2	1.0002
433.15	10100	.5	.25	883.8	.8838
298.15	20100	.5	.25	1372.3	1.3723
333.15	20100	.5	.25	1255.2	1.2552
373.15	20100	.5	.25	1132.6	1.1326
393.15	20100	.5	.25	1075.6	1.0756
433.15	20100	.5	.25	969.8	.9698
333.15	40100	.5	.25	1362.2	1.3622
373.15	40100	.5	.25	1252.2	1.2522
393.15	40100	.5	.25	1201.2	1.2012
433.15	40100	.5	.25	1108.2	1.1082
333.15	60100	.5	.25	1454.5	1.4545
373.15	60100	.5	.25	1352.5	1.3525
393.15	60100	.5	.25	1305.8	1.3058
433.15	60100	.5	.25	1220.4	1.2204
333.15	80100	.5	.25	1536.2	1.5362
373.15	80100	.5	.25	1440.4	1.4404
393.15	80100	.5	.25	1396.6	1.3966
433.15	80100	.5	.25	1316.7	1.3167
333.15	100100	.5	.25	1610.2	1.6102
373.15	100100	.5	.25	1519.3	1.5193
393.15	100100	.5	.25	1477.5	1.4775
433.15	100100	.5	.25	1401.9	1.4019
298.15	100	.25	.5	1278.4	1.2784
333.15	100	.25	.5	1147	1.147
373.15	100	.25	.5	1005.5	1.0055
393.15	100	.25	.5	937.7	.9377
393.15	10100	.25	.5	1023.2	1.0232
433.15	10100	.25	.5	908.6	.9086
298.15	20100	.25	.5	1389.9	1.3899
333.15	20100	.25	.5	1273.8	1.2738
373.15	20100	.25	.5	1152.6	1.1526
393.15	20100	.25	.5	1096.1	1.0961
433.15	20100	.25	.5	991.4	.9914
333.15	40100	.25	.5	1378.7	1.3787
373.15	40100	.25	.5	1269.2	1.2692
393.15	40100	.25	.5	1218.6	1.2186
433.15	40100	.25	.5	1126.1	1.1261
333.15	60100	.25	.5	1469.5	1.4695
373.15	60100	.25	.5	1367.9	1.3679
393.15	60100	.25	.5	1321.5	1.3215
433.15	60100	.25	.5	1236.2	1.2362
333.15	80100	.25	.5	1551.2	1.5512
373.15	80100	.25	.5	1454.5	1.4545
393.15	80100	.25	.5	1410.7	1.4107
433.15	80100	.25	.5	1331	1.331
333.15	100100	.25	.5	1623.3	1.6233
373.15	100100	.25	.5	1532.1	1.5321
393.15	100100	.25	.5	1490.6	1.4906
433.15	100100	.25	.5	1414.8	1.4148
298.15	100	.125	.75	1279.3	1.2793
333.15	100	.125	.75	1147.7	1.1477
373.15	100	.125	.75	1006	1.006
393.15	100	.125	.75	938.4	.9384
393.15	10100	.125	.75	1023.8	1.0238
433.15	10100	.125	.75	909.2	.9092
298.15	20100	.125	.75	1390.8	1.3908
333.15	20100	.125	.75	1274.7	1.2747
373.15	20100	.125	.75	1153	1.153
393.15	20100	.125	.75	1096.7	1.0967
433.15	20100	.125	.75	991.9	.9919
333.15	40100	.125	.75	1379.4	1.3794
373.15	40100	.125	.75	1269.5	1.2695
393.15	40100	.125	.75	1219	1.219
433.15	40100	.125	.75	1126.7	1.1267
333.15	60100	.125	.75	1470.1	1.4701
373.15	60100	.125	.75	1368	1.368
393.15	60100	.125	.75	1321.6	1.3216
433.15	60100	.125	.75	1236.8	1.2368
333.15	80100	.125	.75	1550.6	1.5506
373.15	80100	.125	.75	1454.6	1.4546
393.15	80100	.125	.75	1411.1	1.4111
433.15	80100	.125	.75	1331.7	1.3317
333.15	100100	.125	.75	1623.8	1.6238
373.15	100100	.125	.75	1532.7	1.5327
393.15	100100	.125	.75	1490.9	1.4909
433.15	100100	.125	.75	1415.3	1.4153
