Measured thermophysical data. Experimental measurement and Kent-Eisenberg modelling of CO2 solubility in aqueous mixture of 2-amino-2-methyl-1-propanol and hexamethylenediamine
Source: Fluid Phase Equilib., 2016, 10.1016/j.fluid.2017.01.020
Compound 1: 1,6-diaminohexane, C6H16N2, purity 99%
Compound 2: 2-amino-2-methyl-1-propanol, C4H11NO, purity 95%
Compound 3: carbon dioxide, CO2, purity 99.9%
Compound 4: nitrogen, N2, purity 99.9%
Compound 5: water, H2O, purity 99.8%

System: 1,6-diaminohexane; phases: Liquid
Fixed: Pressure, kPa = 101.325
Property: Mass density, kg/m3 (Liquid); method: Pycnometric method
Temperature, K	Mass density, kg/m3	uncertainty
313.15	856	
318.15	850	
323.15	845	
328.15	842	
333.15	838	

System: 1,6-diaminohexane + 2-amino-2-methyl-1-propanol + water; phases: Liquid
Fixed: Pressure, kPa = 101.3
Property: Mass density, kg/m3 (Liquid); method: Pycnometric method
Temperature, K	Mass fraction of 1,6-diaminohexane	Mass fraction of 2-amino-2-methyl-1-propanol	Mass density, kg/m3	uncertainty
303.15	.5	.25	992	
303.15	.1	.2	988	
303.15	.15	.15	984	
303.15	.2	.1	980	
313.15	.5	.25	985	
313.15	.1	.2	981	
313.15	.15	.15	977	
313.15	.2	.1	973	
323.15	.5	.25	979	
323.15	.1	.2	975	
323.15	.15	.15	971	
323.15	.2	.1	967	
333.15	.5	.25	972	
333.15	.1	.2	968	
333.15	.15	.15	964	
333.15	.2	.1	960	
