Measured thermophysical data. Isobaric vapour liquid equilibria and physical properties for isopropyl acetate + isopropanol + 1-butyl-3-methyl-imidazolium bis(trifluoromethylsulfonyl)imide mixtures
Source: Fluid Phase Equilib., 2010, 10.1016/j.fluid.2010.10.003
Compound 1: 2-propanol, C3H8O, purity 99.5%
Compound 2: 1-methylethyl ethanoate, C5H10O2, purity 99.6%
Compound 3: 1-butyl-3-methylimidazolium bis[(trifluoromethyl)sulfonyl]imide, C10H15F6N3O4S2

System: 2-propanol; phases: Liquid
Fixed: Pressure, kPa = 101.325
Property: Refractive index (Na D-line) (Liquid); method: Standard Abbe refractometry
Temperature, K	Refractive index (Na D-line)	uncertainty
298.15	1.37502	.00004

System: 2-propanol; phases: Liquid
Fixed: Pressure, kPa = 101.325
Property: Mass density, kg/m3 (Liquid); method: Vibrating tube method
Temperature, K	Mass density, kg/m3	uncertainty
298.15	780.88	.03

System: 2-propanol; phases: Liquid
Fixed: Pressure, kPa = 101.325
Property: Viscosity, Pa*s (Liquid); method: Capillary tube (Ostwald; Ubbelohde) method
Temperature, K	Viscosity, Pa*s	uncertainty
298.15	.002073	.000010365

System: 1-methylethyl ethanoate; phases: Liquid
Fixed: Pressure, kPa = 101.325
Property: Refractive index (Na D-line) (Liquid); method: Standard Abbe refractometry
Temperature, K	Refractive index (Na D-line)	uncertainty
298.15	1.3748	.00004

System: 1-methylethyl ethanoate; phases: Liquid
Fixed: Pressure, kPa = 101.325
Property: Mass density, kg/m3 (Liquid); method: Vibrating tube method
Temperature, K	Mass density, kg/m3	uncertainty
298.15	866.21	.03

System: 1-methylethyl ethanoate; phases: Liquid
Fixed: Pressure, kPa = 101.325
Property: Viscosity, Pa*s (Liquid); method: Capillary tube (Ostwald; Ubbelohde) method
Temperature, K	Viscosity, Pa*s	uncertainty
298.15	.000481	.000002405

System: 1-butyl-3-methylimidazolium bis[(trifluoromethyl)sulfonyl]imide; phases: Liquid
Fixed: Pressure, kPa = 101.325
Property: Refractive index (Na D-line) (Liquid); method: Standard Abbe refractometry
Temperature, K	Refractive index (Na D-line)	uncertainty
298.15	1.42692	.00004

System: 1-butyl-3-methylimidazolium bis[(trifluoromethyl)sulfonyl]imide; phases: Liquid
Fixed: Pressure, kPa = 101.325
Property: Mass density, kg/m3 (Liquid); method: Vibrating tube method
Temperature, K	Mass density, kg/m3	uncertainty
298.15	1436.579	.03

System: 1-butyl-3-methylimidazolium bis[(trifluoromethyl)sulfonyl]imide; phases: Liquid
Fixed: Pressure, kPa = 101.325
Property: Viscosity, Pa*s (Liquid); method: Capillary tube (Ostwald; Ubbelohde) method
Temperature, K	Viscosity, Pa*s	uncertainty
298.15	.05068	.0002534

System: 1-methylethyl ethanoate + 1-butyl-3-methylimidazolium bis[(trifluoromethyl)sulfonyl]imide; phases: Liquid
Fixed: Temperature, K = 298.15
Fixed: Pressure, kPa = 101
Property: Mass density, kg/m3 (Liquid); method: Vibrating tube method
Mole fraction of 1-methylethyl ethanoate	Mass density, kg/m3	uncertainty
.0514	1425.08	.03
.1096	1411.17	.03
.1554	1399.42	.03
.1972	1388.1	.03
.2961	1358.2	.03
.4241	1312.34	.03
.5168	1272.49	.03
.5998	1230.54	.03
.7017	1168.62	.03
.7981	1095.44	.03
.8918	1005.35	.03

System: 1-methylethyl ethanoate + 1-butyl-3-methylimidazolium bis[(trifluoromethyl)sulfonyl]imide; phases: Liquid
Fixed: Pressure, kPa = 101
Fixed: Temperature, K = 298.15
Property: Refractive index (Na D-line) (Liquid); method: Standard Abbe refractometry
Mole fraction of 1-methylethyl ethanoate	Refractive index (Na D-line)	uncertainty
.0514	1.42609	.00004
.1096	1.42501	.00004
.1554	1.42412	.00004
.1972	1.42326	.00004
.2961	1.42092	.00004
.4241	1.41733	.00004
.5168	1.4142	.00004
.5998	1.4107	.00004
.7017	1.40538	.00004
.7981	1.39882	.00004
.8918	1.39016	.00004

System: 1-methylethyl ethanoate + 1-butyl-3-methylimidazolium bis[(trifluoromethyl)sulfonyl]imide; phases: Liquid
Fixed: Temperature, K = 298.15
Fixed: Pressure, kPa = 101
Property: Viscosity, Pa*s (Liquid); method: Capillary tube (Ostwald; Ubbelohde) method
Mole fraction of 1-methylethyl ethanoate	Viscosity, Pa*s	uncertainty
.0514	.04431	.00022155
.1096	.03856	.0001928
.1554	.03387	.00016935
.1972	.03034	.0001517
.2961	.02258	.0001129
.4241	.01446	.0000723
.5168	.01007	.00005035
.5998	.006918	.00003459
.7017	.004356	.00002178
.7981	.002363	.000011815
.8918	.00141	.00000705

System: 1-methylethyl ethanoate + 1-butyl-3-methylimidazolium bis[(trifluoromethyl)sulfonyl]imide; phases: Liquid
Fixed: Temperature, K = 298.15
Fixed: Pressure, kPa = 101
Property: Excess molar volume, m3/mol (Liquid); method: Calculated with densities of this investigation
Mole fraction of 1-methylethyl ethanoate	Excess molar volume, m3/mol	uncertainty
.0514	-.000000142	-.000000000284
.1096	-.00000031	-.00000000062
.1554	-.000000433	-.000000000866
.1972	-.000000555	-.00000000111
.2961	-.00000079	-.00000000158
.4241	-.000001082	-.000000002164
.5168	-.000001261	-.000000002522
.5998	-.000001378	-.000000002756
.7017	-.000001445	-.00000000289
.7981	-.000001341	-.000000002682
.8918	-.000001009	-.000000002018

System: 1-methylethyl ethanoate + 1-butyl-3-methylimidazolium bis[(trifluoromethyl)sulfonyl]imide; phases: Liquid, Gas
Fixed: Pressure, kPa = 101
Property: Mole fraction of 1-methylethyl ethanoate (Liquid); method: densimetry
Temperature, K	Mole fraction of 1-methylethyl ethanoate	uncertainty
361.76	.9794	.004
362.09	.9463	.004
362.59	.9031	.004
363	.876	.004
363.67	.8477	.004
364.39	.8201	.004
365.16	.7901	.004
366.41	.7545	.004
367.38	.7313	.004
368.18	.7125	.004
369.35	.6817	.004
370.88	.6508	.004
372.41	.6186	.004
373.21	.5945	.004
375.12	.5735	.004
376.78	.5488	.004
378.17	.5315	.004
380.78	.5007	.004
382.97	.4734	.004
385.58	.4353	.004
391.35	.3753	.004
396.45	.3324	.004
401.97	.2933	.004
407.18	.2552	.004
415.08	.2245	.004

System: 2-propanol + 1-butyl-3-methylimidazolium bis[(trifluoromethyl)sulfonyl]imide; phases: Liquid
Fixed: Temperature, K = 298.15
Fixed: Pressure, kPa = 101
Property: Mass density, kg/m3 (Liquid); method: Vibrating tube method
Mole fraction of 2-propanol	Mass density, kg/m3	uncertainty
.0515	1427.23	.03
.0962	1418.52	.03
.1921	1397.79	.03
.3213	1363.98	.03
.3896	1342.5	.03
.4869	1306.05	.03
.5173	1292.91	.03
.6074	1247.91	.03
.6943	1192.86	.03
.7996	1102.82	.03
.8995	978.52	.03

System: 2-propanol + 1-butyl-3-methylimidazolium bis[(trifluoromethyl)sulfonyl]imide; phases: Liquid
Fixed: Pressure, kPa = 101
Fixed: Temperature, K = 298.15
Property: Refractive index (Na D-line) (Liquid); method: Standard Abbe refractometry
Mole fraction of 2-propanol	Refractive index (Na D-line)	uncertainty
.0515	1.42621	.00004
.0962	1.42549	.00004
.1921	1.42385	.00004
.3213	1.42124	.00004
.3896	1.41962	.00004
.4869	1.41685	.00004
.5173	1.41578	.00004
.6074	1.4124	.00004
.6943	1.40818	.00004
.7996	1.40129	.00004
.8995	1.39152	.00004

System: 2-propanol + 1-butyl-3-methylimidazolium bis[(trifluoromethyl)sulfonyl]imide; phases: Liquid
Fixed: Temperature, K = 298.15
Fixed: Pressure, kPa = 101
Property: Viscosity, Pa*s (Liquid); method: Capillary tube (Ostwald; Ubbelohde) method
Mole fraction of 2-propanol	Viscosity, Pa*s	uncertainty
.0515	.04544	.0002272
.0962	.0412	.000206
.1921	.03345	.00016725
.3213	.0245	.0001225
.3896	.02046	.0001023
.4869	.01584	.0000792
.5173	.01467	.00007335
.6074	.01122	.0000561
.6943	.008545	.000042725
.7996	.005859	.000029295
.8995	.003898	.00001949

System: 2-propanol + 1-butyl-3-methylimidazolium bis[(trifluoromethyl)sulfonyl]imide; phases: Liquid
Fixed: Temperature, K = 298.15
Fixed: Pressure, kPa = 101
Property: Excess molar volume, m3/mol (Liquid); method: Calculated with densities of this investigation
Mole fraction of 2-propanol	Excess molar volume, m3/mol	uncertainty
.0515	.000000019	.000000000038
.0962	.000000032	.000000000064
.1921	.000000022	.000000000044
.3213	-.000000025	-.00000000005
.3896	-.000000054	-.000000000108
.4869	-.000000096	-.000000000192
.5173	-.000000109	-.000000000218
.6074	-.000000164	-.000000000328
.6943	-.00000022	-.00000000044
.7996	-.00000026	-.00000000052
.8995	-.000000244	-.000000000488

System: 2-propanol + 1-butyl-3-methylimidazolium bis[(trifluoromethyl)sulfonyl]imide; phases: Liquid, Gas
Fixed: Pressure, kPa = 101
Property: Mole fraction of 2-propanol (Liquid); method: densimetry
Temperature, K	Mole fraction of 2-propanol	uncertainty
355.66	.9842	.004
355.85	.9678	.004
356.05	.9479	.004
356.44	.9116	.004
356.95	.8768	.004
357.6	.826	.004
358.24	.7934	.004
358.8	.7693	.004
359.49	.7414	.004
360.44	.705	.004
361.3	.6791	.004
362.81	.6329	.004
363.66	.6112	.004
364.94	.5855	.004
366.1	.5618	.004
368.1	.5239	.004
370.31	.4896	.004
372.69	.4528	.004
374.62	.4303	.004
377.01	.407	.004
381.69	.3611	.004
385.77	.3214	.004
390.49	.2944	.004
396	.2638	.004
401.66	.2331	.004
408.85	.2008	.004
415.91	.1925	.004

System: 2-propanol + 1-methylethyl ethanoate + 1-butyl-3-methylimidazolium bis[(trifluoromethyl)sulfonyl]imide; phases: Liquid
Fixed: Pressure, kPa = 101
Fixed: Temperature, K = 298.15
Property: Mass density, kg/m3 (Liquid); method: Vibrating tube method
Mole fraction of 1-methylethyl ethanoate	Mole fraction of 2-propanol	Mass density, kg/m3	uncertainty
.8775	.1101	877.74	.03
.7871	.1914	886.63	.03
.6915	.2772	896.49	.03
.5981	.3612	906.5	.03
.4951	.4537	918.06	.03
.408	.532	928.31	.03
.3137	.6167	939.54	.03
.1911	.727	954.71	.03
.0964	.8121	966.79	.03
.0433	.8597	973.8	.03
.8884	.0893	893.71	.03
.7933	.1654	916.87	.03
.6833	.2534	943.58	.03
.6059	.3153	962.1	.03
.5141	.3888	984.06	.03
.4148	.4682	1007.19	.03
.3209	.5434	1029.07	.03
.1943	.6447	1058.33	.03
.1396	.6885	1070.81	.03
.0963	.7231	1080.63	.03
.0502	.7599	1091.04	.03
.8918	.0754	909.54	.03
.7939	.1436	946.57	.03
.6949	.2126	982.44	.03
.5934	.2833	1016.98	.03
.5025	.3467	1046.76	.03
.4134	.4088	1074.53	.03
.3076	.4825	1106.43	.03
.2246	.5403	1130.36	.03
.1679	.5799	1146.11	.03
.1285	.6073	1156.81	.03
.0549	.6586	1176.78	.03
.8941	.0637	923.09	.03
.7857	.129	975.84	.03
.6807	.1921	1022.59	.03
.5925	.2453	1058.89	.03
.494	.3045	1096.49	.03
.4323	.3417	1118.82	.03
.3234	.4072	1155.63	.03
.2338	.4611	1184.05	.03
.1724	.498	1202.51	.03
.0965	.5437	1224.63	.03
.0419	.5765	1239.85	.03
.8913	.0545	939.6	.03
.7957	.1023	996.19	.03
.6948	.1529	1049.3	.03
.5975	.2016	1095.4	.03
.5095	.2456	1133.06	.03
.3953	.3028	1177.18	.03
.2951	.353	1212.31	.03
.2028	.3992	1242.18	.03
.1459	.4277	1259.33	.03
.101	.4502	1272.39	.03
.0466	.4775	1287.8	.03
.8835	.0466	959.78	.03
.7822	.0871	1027.97	.03
.6774	.129	1088.54	.03
.599	.1604	1128.63	.03
.4903	.2039	1177.82	.03
.4548	.2181	1192.58	.03
.2931	.2827	1252.3	.03
.2003	.3199	1282.57	.03
.1457	.3417	1299.05	.03
.0983	.3607	1312.65	.03
.0527	.3789	1325.1	.03
.8933	.0318	966.29	.03
.7916	.0621	1043.97	.03
.698	.09	1104.36	.03
.5992	.1194	1158.79	.03
.5095	.1461	1201.66	.03
.3971	.1796	1248.5	.03
.2976	.2093	1284.46	.03
.1968	.2393	1317.06	.03
.152	.2527	1330.21	.03
.0983	.2687	1345.49	.03
.0523	.2824	1357.67	.03
.8854	.023	986.14	.03
.7964	.0409	1060.31	.03
.7009	.06	1125.94	.03
.6042	.0794	1181.81	.03
.5045	.0994	1231	.03
.3993	.1205	1275.11	.03
.3116	.1381	1307.04	.03
.2175	.157	1337.66	.03
.1723	.1661	1350.88	.03
.1274	.1751	1363.68	.03
.0877	.183	1374.18	.03
.8974	.0104	987.24	.03
.7869	.0216	1086.42	.03
.6937	.031	1153.08	.03
.6076	.0397	1204.14	.03
.5101	.0496	1253.22	.03
.4075	.06	1296.47	.03
.3071	.0701	1333.14	.03
.225	.0784	1359.16	.03
.1617	.0848	1377.37	.03
.1135	.0897	1390.39	.03
.07	.0941	1401.45	.03

System: 2-propanol + 1-methylethyl ethanoate + 1-butyl-3-methylimidazolium bis[(trifluoromethyl)sulfonyl]imide; phases: Liquid
Fixed: Temperature, K = 298.15
Fixed: Pressure, kPa = 101
Property: Refractive index (Na D-line) (Liquid); method: Standard Abbe refractometry
Mole fraction of 1-methylethyl ethanoate	Mole fraction of 2-propanol	Refractive index (Na D-line)	uncertainty
.8775	.1101	1.37652	.00004
.7871	.1914	1.37785	.00004
.6915	.2772	1.37934	.00004
.5981	.3612	1.38088	.00004
.4951	.4537	1.38268	.00004
.408	.532	1.38421	.00004
.3137	.6167	1.38585	.00004
.1911	.727	1.38803	.00004
.0964	.8121	1.3898	.00004
.0433	.8597	1.39083	.00004
.8884	.0893	1.37822	.00004
.7933	.1654	1.38106	.00004
.6833	.2534	1.38427	.00004
.6059	.3153	1.38646	.00004
.5141	.3888	1.38889	.00004
.4148	.4682	1.39144	.00004
.3209	.5434	1.39378	.00004
.1943	.6447	1.3968	.00004
.1396	.6885	1.39806	.00004
.0963	.7231	1.39914	.00004
.0502	.7599	1.40009	.00004
.8918	.0754	1.38005	.00004
.7939	.1436	1.38418	.00004
.6949	.2126	1.38809	.00004
.5934	.2833	1.39176	.00004
.5025	.3467	1.39471	.00004
.4134	.4088	1.39744	.00004
.3076	.4825	1.40035	.00004
.2246	.5403	1.40257	.00004
.1679	.5799	1.40399	.00004
.1285	.6073	1.40501	.00004
.0549	.6586	1.40673	.00004
.8941	.0637	1.38149	.00004
.7857	.129	1.38722	.00004
.6807	.1921	1.39204	.00004
.5925	.2453	1.39559	.00004
.494	.3045	1.39911	.00004
.4323	.3417	1.40115	.00004
.3234	.4072	1.4044	.00004
.2338	.4611	1.4069	.00004
.1724	.498	1.40845	.00004
.0965	.5437	1.41038	.00004
.0419	.5765	1.41175	.00004
.8913	.0545	1.38315	.00004
.7957	.1023	1.38918	.00004
.6948	.1529	1.39448	.00004
.5975	.2016	1.39886	.00004
.5095	.2456	1.40232	.00004
.3953	.3028	1.40608	.00004
.2951	.353	1.40908	.00004
.2028	.3992	1.41161	.00004
.1459	.4277	1.41306	.00004
.101	.4502	1.41409	.00004
.0466	.4775	1.41537	.00004
.8835	.0466	1.38531	.00004
.7822	.0871	1.39238	.00004
.6774	.129	1.39817	.00004
.599	.1604	1.40183	.00004
.4903	.2039	1.40615	.00004
.4548	.2181	1.40735	.00004
.2931	.2827	1.41235	.00004
.2003	.3199	1.41479	.00004
.1457	.3417	1.41614	.00004
.0983	.3607	1.41724	.00004
.0527	.3789	1.41825	.00004
.8933	.0318	1.38606	.00004
.7916	.0621	1.39398	.00004
.698	.09	1.39962	.00004
.5992	.1194	1.40443	.00004
.5095	.1461	1.40824	.00004
.3971	.1796	1.41203	.00004
.2976	.2093	1.41502	.00004
.1968	.2393	1.41756	.00004
.152	.2527	1.41859	.00004
.0983	.2687	1.41993	.00004
.0523	.2824	1.42081	.00004
.8854	.023	1.38804	.00004
.7964	.0409	1.39548	.00004
.7009	.06	1.40165	.00004
.6042	.0794	1.40644	.00004
.5045	.0994	1.41067	.00004
.3993	.1205	1.4142	.00004
.3116	.1381	1.4168	.00004
.2175	.157	1.41924	.00004
.1723	.1661	1.42035	.00004
.1274	.1751	1.42123	.00004
.0877	.183	1.42203	.00004
.8974	.0104	1.38818	.00004
.7869	.0216	1.3979	.00004
.6937	.031	1.40395	.00004
.6076	.0397	1.40836	.00004
.5101	.0496	1.41242	.00004
.4075	.06	1.41596	.00004
.3071	.0701	1.41894	.00004
.225	.0784	1.42094	.00004
.1617	.0848	1.42238	.00004
.1135	.0897	1.42336	.00004
.07	.0941	1.42421	.00004

System: 2-propanol + 1-methylethyl ethanoate + 1-butyl-3-methylimidazolium bis[(trifluoromethyl)sulfonyl]imide; phases: Liquid
Fixed: Pressure, kPa = 101
Fixed: Temperature, K = 298.15
Property: Viscosity, Pa*s (Liquid); method: Capillary tube (Ostwald; Ubbelohde) method
Mole fraction of 1-methylethyl ethanoate	Mole fraction of 2-propanol	Viscosity, Pa*s	uncertainty
.8775	.1101	.000715	.000003575
.7871	.1914	.000899	.000004495
.6915	.2772	.000839	.000004195
.5981	.3612	.000962	.00000481
.4951	.4537	.001145	.000005725
.408	.532	.001231	.000006155
.3137	.6167	.001629	.000008145
.1911	.727	.002216	.00001108
.0964	.8121	.002893	.000014465
.0433	.8597	.003342	.00001671
.8884	.0893	.000674	.00000337
.7933	.1654	.000754	.00000377
.6833	.2534	.000967	.000004835
.6059	.3153	.001151	.000005755
.5141	.3888	.001439	.000007195
.4148	.4682	.001954	.00000977
.3209	.5434	.002329	.000011645
.1943	.6447	.003457	.000017285
.1396	.6885	.003826	.00001913
.0963	.7231	.004391	.000021955
.0502	.7599	.005042	.00002521
.8918	.0754	.000674	.00000337
.7939	.1436	.0009	.0000045
.6949	.2126	.001205	.000006025
.5934	.2833	.001648	.00000824
.5025	.3467	.002065	.000010325
.4134	.4088	.002698	.00001349
.3076	.4825	.003551	.000017755
.2246	.5403	.004534	.00002267
.1679	.5799	.005316	.00002658
.1285	.6073	.005921	.000029605
.0549	.6586	.007245	.000036225
.8941	.0637	.000736	.00000368
.7857	.129	.001139	.000005695
.6807	.1921	.001672	.00000836
.5925	.2453	.002052	.00001026
.494	.3045	.002841	.000014205
.4323	.3417	.003425	.000017125
.3234	.4072	.004692	.00002346
.2338	.4611	.006034	.00003017
.1724	.498	.007198	.00003599
.0965	.5437	.008856	.00004428
.0419	.5765	.01018	.0000509
.8913	.0545	.00083	.00000415
.7957	.1023	.001226	.00000613
.6948	.1529	.001818	.00000909
.5975	.2016	.002583	.000012915
.5095	.2456	.003516	.00001758
.3953	.3028	.005072	.00002536
.2951	.353	.006813	.000034065
.2028	.3992	.008954	.00004477
.1459	.4277	.01039	.00005195
.101	.4502	.01181	.00005905
.0466	.4775	.01356	.0000678
.8835	.0466	.000941	.000004705
.7822	.0871	.00151	.00000755
.6774	.129	.002393	.000011965
.599	.1604	.003242	.00001621
.4903	.2039	.004813	.000024065
.4548	.2181	.005423	.000027115
.2931	.2827	.009071	.000045355
.2003	.3199	.01181	.00005905
.1457	.3417	.0138	.000069
.0983	.3607	.01556	.0000778
.0527	.3789	.01761	.00008805
.8933	.0318	.001061	.000005305
.7916	.0621	.001773	.000008865
.698	.09	.002628	.00001314
.5992	.1194	.003975	.000019875
.5095	.1461	.005659	.000028295
.3971	.1796	.008372	.00004186
.2976	.2093	.01155	.00005775
.1968	.2393	.01545	.00007725
.152	.2527	.01749	.00008745
.0983	.2687	.02013	.00010065
.0523	.2824	.02282	.0001141
.8854	.023	.001137	.000005685
.7964	.0409	.001868	.00000934
.7009	.06	.003059	.000015295
.6042	.0794	.004728	.00002364
.5045	.0994	.007096	.00003548
.3993	.1205	.01036	.0000518
.3116	.1381	.01389	.00006945
.2175	.157	.01834	.0000917
.1723	.1661	.02103	.00010515
.1274	.1751	.02356	.0001178
.0877	.183	.02639	.00013195
.8974	.0104	.001122	.00000561
.7869	.0216	.002231	.000011155
.6937	.031	.003722	.00001861
.6076	.0397	.005603	.000028015
.5101	.0496	.008549	.000042745
.4075	.06	.01251	.00006255
.3071	.0701	.01767	.00008835
.225	.0784	.02253	.00011265
.1617	.0848	.02725	.00013625
.1135	.0897	.03071	.00015355
.07	.0941	.03477	.00017385

System: 2-propanol + 1-methylethyl ethanoate + 1-butyl-3-methylimidazolium bis[(trifluoromethyl)sulfonyl]imide; phases: Liquid
Fixed: Temperature, K = 298.15
Fixed: Pressure, kPa = 101
Property: Excess molar volume, m3/mol (Liquid); method: Calculated with densities of this investigation
Mole fraction of 1-methylethyl ethanoate	Mole fraction of 2-propanol	Excess molar volume, m3/mol	uncertainty
.8775	.1101	.000000013	.000000000026
.7871	.1914	.000000013	.000000000026
.6915	.2772	-.000000009	-.000000000018
.5981	.3612	-.000000034	-.000000000068
.4951	.4537	-.00000008	-.00000000016
.408	.532	-.000000134	-.000000000268
.3137	.6167	-.000000164	-.000000000328
.1911	.727	-.000000199	-.000000000398
.0964	.8121	-.000000213	-.000000000426
.0433	.8597	-.000000226	-.000000000452
.8884	.0893	-.000000133	-.000000000266
.7933	.1654	-.000000218	-.000000000436
.6833	.2534	-.000000312	-.000000000624
.6059	.3153	-.00000035	-.0000000007
.5141	.3888	-.000000398	-.000000000796
.4148	.4682	-.000000385	-.00000000077
.3209	.5434	-.00000038	-.00000000076
.1943	.6447	-.000000361	-.000000000722
.1396	.6885	-.000000339	-.000000000678
.0963	.7231	-.000000319	-.000000000638
.0502	.7599	-.000000294	-.000000000588
.8918	.0754	-.000000284	-.000000000568
.7939	.1436	-.000000441	-.000000000882
.6949	.2126	-.000000571	-.000000001142
.5934	.2833	-.000000592	-.000000001184
.5025	.3467	-.000000601	-.000000001202
.4134	.4088	-.000000558	-.000000001116
.3076	.4825	-.00000052	-.00000000104
.2246	.5403	-.00000046	-.00000000092
.1679	.5799	-.000000395	-.00000000079
.1285	.6073	-.000000346	-.000000000692
.0549	.6586	-.000000298	-.000000000596
.8941	.0637	-.000000403	-.000000000806
.7857	.129	-.000000627	-.000000001254
.6807	.1921	-.000000742	-.000000001484
.5925	.2453	-.000000768	-.000000001536
.494	.3045	-.000000734	-.000000001468
.4323	.3417	-.000000704	-.000000001408
.3234	.4072	-.000000587	-.000000001174
.2338	.4611	-.000000484	-.000000000968
.1724	.498	-.000000398	-.000000000796
.0965	.5437	-.000000315	-.00000000063
.0419	.5765	-.000000244	-.000000000488
.8913	.0545	-.000000534	-.000000001068
.7957	.1023	-.00000078	-.00000000156
.6948	.1529	-.000000885	-.00000000177
.5975	.2016	-.000000925	-.00000000185
.5095	.2456	-.000000874	-.000000001748
.3953	.3028	-.000000737	-.000000001474
.2951	.353	-.000000598	-.000000001196
.2028	.3992	-.000000463	-.000000000926
.1459	.4277	-.000000355	-.00000000071
.101	.4502	-.00000028	-.00000000056
.0466	.4775	-.000000209	-.000000000418
.8835	.0466	-.000000682	-.000000001364
.7822	.0871	-.000000962	-.000000001924
.6774	.129	-.000001055	-.00000000211
.599	.1604	-.000001056	-.000000002112
.4903	.2039	-.000000968	-.000000001936
.4548	.2181	-.000000931	-.000000001862
.2931	.2827	-.000000628	-.000000001256
.2003	.3199	-.000000476	-.000000000952
.1457	.3417	-.000000371	-.000000000742
.0983	.3607	-.000000277	-.000000000554
.0527	.3789	-.000000169	-.000000000338
.8933	.0318	-.000000738	-.000000001476
.7916	.0621	-.000001033	-.000000002066
.698	.09	-.000001154	-.000000002308
.5992	.1194	-.000001147	-.000000002294
.5095	.1461	-.000001055	-.00000000211
.3971	.1796	-.000000898	-.000000001796
.2976	.2093	-.000000693	-.000000001386
.1968	.2393	-.000000502	-.000000001004
.152	.2527	-.000000385	-.00000000077
.0983	.2687	-.000000294	-.000000000588
.0523	.2824	-.000000175	-.00000000035
.8854	.023	-.000000851	-.000000001702
.7964	.0409	-.000001154	-.000000002308
.7009	.06	-.000001224	-.000000002448
.6042	.0794	-.00000119	-.00000000238
.5045	.0994	-.000001113	-.000000002226
.3993	.1205	-.000000941	-.000000001882
.3116	.1381	-.000000751	-.000000001502
.2175	.157	-.000000564	-.000000001128
.1723	.1661	-.000000427	-.000000000854
.1274	.1751	-.000000351	-.000000000702
.0877	.183	-.000000234	-.000000000468
.8974	.0104	-.00000089	-.00000000178
.7869	.0216	-.00000125	-.0000000025
.6937	.031	-.000001355	-.00000000271
.6076	.0397	-.000001308	-.000000002616
.5101	.0496	-.000001204	-.000000002408
.4075	.06	-.000000977	-.000000001954
.3071	.0701	-.000000812	-.000000001624
.225	.0784	-.000000606	-.000000001212
.1617	.0848	-.000000447	-.000000000894
.1135	.0897	-.000000345	-.00000000069
.07	.0941	-.000000242	-.000000000484
