Measured thermophysical data. Liquid phase equilibria of (water + formic acid + diethyl carbonate or diethyl malonate or diethyl fumarate) ternary systems at 298.15K and atmospheric pressure
Source: Fluid Phase Equilib., 2011, 10.1016/j.fluid.2010.08.030
Compound 1: methanoic acid, CH2O2, purity 98%
Compound 2: diethyl carbonate, C5H10O3, purity 99%
Compound 3: diethyl 1,3-propanedioate, C7H12O4, purity 99%
Compound 4: diethyl fumarate, C8H12O4, purity 97%
Compound 5: water, H2O

System: methanoic acid + diethyl carbonate + water; phases: Liquid mixture 1, Liquid mixture 2
Fixed: Temperature, K = 298.15
Fixed: Pressure, kPa = 101.3
Property: Mole fraction of methanoic acid (Liquid mixture 1); method: Titration method
Mole fraction of water	Mole fraction of methanoic acid	uncertainty
.9973	0	0
.9482	.0477	.001431
.9038	.0902	.002706
.8483	.142	.00426
.7754	.2037	.006111
.6905	.2687	.008061
.6451	.291	.00873
.5775	.3046	.009138
.5326	.2997	.008991
.4759	.2746	.008238
.4389	.2517	.007551
.3544	.1864	.005592
.2456	.1209	.003627
.1568	.0654	.001962
.058	0	0

System: methanoic acid + diethyl carbonate + water; phases: Liquid mixture 1, Liquid mixture 2
Fixed: Temperature, K = 298.15
Fixed: Pressure, kPa = 101.3
Property: Mole fraction of diethyl carbonate (Liquid mixture 1); method: Titration method
Mole fraction of water	Mole fraction of diethyl carbonate	uncertainty
.9973	.0027	.000081
.9482	.0041	.000123
.9038	.006	.00018
.8483	.0097	.000291
.7754	.0209	.000627
.6905	.0408	.001224
.6451	.0639	.001917
.5775	.1179	.003537
.5326	.1677	.005031
.4759	.2495	.007485
.4389	.3094	.009282
.3544	.4592	.013776
.2456	.6335	.019005
.1568	.7778	.023334
.058	.942	.02826

System: methanoic acid + diethyl carbonate + water; phases: Liquid mixture 2, Liquid mixture 1
Property: Mole fraction of methanoic acid (Liquid mixture 2); method: Chromatography
Property: Mole fraction of water (Liquid mixture 1); method: Chromatography
Property: Mole fraction of methanoic acid (Liquid mixture 1); method: Chromatography
Temperature, K	Pressure, kPa	Mole fraction of water	Mole fraction of methanoic acid	uncertainty	Mole fraction of water	uncertainty	Mole fraction of methanoic acid	uncertainty
298.15	101.3	.1208	.0397	.0005	.9619	.0005	.0334	.0005
298.15	101.3	.1707	.0685	.0005	.9302	.0005	.064	.0005
298.15	101.3	.2423	.1098	.0005	.8846	.0005	.1081	.0005
298.15	101.3	.3033	.1561	.0005	.8345	.0005	.1533	.0005
298.15	101.3	.3696	.1911	.0005	.7907	.0005	.191	.0005

System: methanoic acid + diethyl 1,3-propanedioate + water; phases: Liquid mixture 1, Liquid mixture 2
Fixed: Temperature, K = 298.15
Fixed: Pressure, kPa = 101.3
Property: Mole fraction of methanoic acid (Liquid mixture 1); method: Titration method
Mole fraction of water	Mole fraction of methanoic acid	uncertainty
.9975	0	0
.9586	.0377	.001131
.9012	.0917	.002751
.8477	.1374	.004122
.804	.1693	.005079
.7408	.2013	.006039
.6885	.2175	.006525
.6276	.2227	.006681
.5294	.2291	.006873
.4831	.1661	.004983
.4512	.0834	.002502
.4196	0	0

System: methanoic acid + diethyl 1,3-propanedioate + water; phases: Liquid mixture 1, Liquid mixture 2
Fixed: Temperature, K = 298.15
Fixed: Pressure, kPa = 101.3
Property: Mole fraction of diethyl 1,3-propanedioate (Liquid mixture 1); method: Titration method
Mole fraction of water	Mole fraction of diethyl 1,3-propanedioate	uncertainty
.9975	.0025	.000075
.9586	.0037	.000111
.9012	.0071	.000213
.8477	.0149	.000447
.804	.0267	.000801
.7408	.0579	.001737
.6885	.094	.00282
.6276	.1497	.004491
.5294	.2415	.007245
.4831	.3508	.010524
.4512	.4654	.013962
.4196	.5804	.017412

System: methanoic acid + diethyl 1,3-propanedioate + water; phases: Liquid mixture 2, Liquid mixture 1
Property: Mole fraction of water (Liquid mixture 2); method: Chromatography
Property: Mole fraction of water (Liquid mixture 1); method: Chromatography
Property: Mole fraction of methanoic acid (Liquid mixture 1); method: Chromatography
Temperature, K	Pressure, kPa	Mole fraction of methanoic acid	Mole fraction of water	uncertainty	Mole fraction of water	uncertainty	Mole fraction of methanoic acid	uncertainty
298.15	101.3	.0523	.4401	.0005	.9643	.0005	.0322	.0005
298.15	101.3	.0896	.4554	.0005	.9393	.0005	.0562	.0005
298.15	101.3	.1497	.477	.0005	.8984	.0005	.0943	.0005
298.15	101.3	.1806	.4857	.0005	.871	.0005	.1177	.0005
298.15	101.3	.2162	.5233	.0005	.835	.0005	.1471	.0005

System: methanoic acid + diethyl fumarate + water; phases: Liquid mixture 1, Liquid mixture 2
Fixed: Temperature, K = 298.15
Fixed: Pressure, kPa = 101.3
Property: Mole fraction of methanoic acid (Liquid mixture 1); method: Titration method
Mole fraction of water	Mole fraction of methanoic acid	uncertainty
.9999	0	0
.9583	.0412	.001236
.9072	.0916	.002748
.8519	.1466	.004398
.7907	.2074	.006222
.6964	.2995	.008985
.6289	.3577	.010731
.5897	.3831	.011493
.5546	.3952	.011856
.5165	.3843	.011529
.4927	.3782	.011346
.4542	.3435	.010305
.4016	.2948	.008844
.3324	.2365	.007095
.2614	.1759	.005277
.2149	.1262	.003786
.1382	.0604	.001812
.0857	0	0

System: methanoic acid + diethyl fumarate + water; phases: Liquid mixture 1, Liquid mixture 2
Fixed: Temperature, K = 298.15
Fixed: Pressure, kPa = 101.3
Property: Mole fraction of diethyl fumarate (Liquid mixture 1); method: Titration method
Mole fraction of water	Mole fraction of diethyl fumarate	uncertainty
.9999	.0001	.000003
.9583	.0005	.000015
.9072	.0012	.000036
.8519	.0015	.000045
.7907	.0019	.000057
.6964	.0041	.000123
.6289	.0134	.000402
.5897	.0272	.000816
.5546	.0502	.001506
.5165	.0992	.002976
.4927	.1291	.003873
.4542	.2023	.006069
.4016	.3036	.009108
.3324	.4311	.012933
.2614	.5627	.016881
.2149	.6589	.019767
.1382	.8014	.024042
.0857	.9143	.027429

System: methanoic acid + diethyl fumarate + water; phases: Liquid mixture 2, Liquid mixture 1
Property: Mole fraction of methanoic acid (Liquid mixture 2); method: Chromatography
Property: Mole fraction of water (Liquid mixture 1); method: Chromatography
Property: Mole fraction of methanoic acid (Liquid mixture 1); method: Chromatography
Temperature, K	Pressure, kPa	Mole fraction of water	Mole fraction of methanoic acid	uncertainty	Mole fraction of water	uncertainty	Mole fraction of methanoic acid	uncertainty
298.15	101.3	.1329	.0547	.0005	.9598	.0005	.0397	.0005
298.15	101.3	.163	.0898	.0005	.9333	.0005	.0657	.0005
298.15	101.3	.2214	.1351	.0005	.8915	.0005	.1072	.0005
298.15	101.3	.2816	.1979	.0005	.8397	.0005	.1587	.0005
298.15	101.3	.3356	.2362	.0005	.8123	.0005	.1859	.0005
