Measured thermophysical data. Vapor pressure and liquid density of fluorinated alcohols: experimental, simulation and GC-SAFT-VR predictions
Source: Fluid Phase Equilib., 2016, 10.1016/j.fluid.2016.06.011
Compound 1: 2,2,3,3,3-pentafluoro-1-propanol, C3H3F5O, purity 98%
Compound 2: 2,2,3,3,4,4,4-heptafluorobutanol, C4H3F7O, purity 98%
Compound 3: 2,2,3,3,4,4,5,5,5-nonafluoropentanol, C5H3F9O, purity 97%
Compound 4: 1,1-Dihydroperfluorohexanol, C6H3F11O, purity 98%

System: 2,2,3,3,3-pentafluoro-1-propanol; phases: Liquid, Gas
Property: Molar enthalpy of vaporization or sublimation, kJ/mol (Liquid); method: Derived by Second law
Temperature, K	Molar enthalpy of vaporization or sublimation, kJ/mol	uncertainty
313.01	45.1	.2

System: 2,2,3,3,3-pentafluoro-1-propanol; phases: Liquid, Gas
Property: Vapor or sublimation pressure, kPa (Liquid); method: Closed cell (Static) method
Temperature, K	Vapor or sublimation pressure, kPa	uncertainty
298.08	6.2055	
303.05	8.4158	
308.04	11.3058	
313.01	14.9656	
317.98	19.5864	
322.96	25.4116	
327.93	32.4857	

System: 2,2,3,3,3-pentafluoro-1-propanol; phases: Liquid
Fixed: Pressure, kPa = 101.325
Property: Mass density, kg/m3 (Liquid); method: Vibrating tube method
Temperature, K	Mass density, kg/m3	uncertainty
278.156	1542.779	
279.149	1540.993	
280.148	1539.175	
281.147	1537.351	
282.148	1535.524	
283.147	1533.693	
284.147	1531.863	
285.146	1530.021	
286.147	1528.177	
287.147	1526.328	
288.146	1524.473	
289.147	1522.615	
290.146	1520.747	
291.146	1518.879	
292.147	1517.003	
293.146	1515.119	
294.147	1513.232	
295.147	1511.346	
296.146	1509.444	
297.147	1507.539	
298.146	1505.629	
299.146	1503.714	
300.146	1501.788	
301.146	1499.857	
302.146	1497.923	
303.147	1495.975	
304.147	1494.025	
305.145	1492.069	
306.146	1490.099	
307.147	1488.127	
308.146	1486.147	
309.145	1484.157	
310.145	1482.163	
311.145	1480.158	
312.145	1478.145	
313.145	1476.122	
314.146	1474.093	
315.146	1472.059	
316.145	1470.01	
317.145	1467.955	
318.147	1465.891	
319.145	1463.815	
320.145	1461.734	
321.146	1459.645	
322.145	1457.545	
323.145	1455.434	
324.145	1453.313	
325.145	1451.184	
326.145	1449.045	
327.145	1446.895	
328.146	1444.737	
329.146	1442.565	
330.144	1440.389	
331.145	1438.198	
332.145	1436	
333.144	1433.788	
334.145	1431.569	
335.144	1429.339	
336.145	1427.097	
337.145	1424.843	
338.144	1422.58	
339.144	1420.307	
340.144	1418.025	
341.144	1415.725	
342.144	1413.42	
343.149	1411.103	
344.146	1408.778	
345.146	1406.432	
346.147	1404.078	
347.147	1401.717	
348.146	1399.338	
349.145	1396.949	
350.145	1394.549	
351.145	1392.142	
352.145	1389.719	
353.145	1387.286	

System: 2,2,3,3,4,4,4-heptafluorobutanol; phases: Liquid, Gas
Property: Molar enthalpy of vaporization or sublimation, kJ/mol (Liquid); method: Derived by Second law
Temperature, K	Molar enthalpy of vaporization or sublimation, kJ/mol	uncertainty
303.05	48.3	.1

System: 2,2,3,3,4,4,4-heptafluorobutanol; phases: Liquid, Gas
Property: Vapor or sublimation pressure, kPa (Liquid); method: Closed cell (Static) method
Temperature, K	Vapor or sublimation pressure, kPa	uncertainty
278.14	.7213	
283.1	1.047	
288.08	1.4954	
293.08	2.1173	
298.1	2.9653	
303.07	4.0862	
308.04	5.5515	
313.03	7.4728	
317.98	9.9047	
322.95	13.1446	
327.91	17.2579	

System: 2,2,3,3,4,4,4-heptafluorobutanol; phases: Liquid
Fixed: Pressure, kPa = 101.325
Property: Mass density, kg/m3 (Liquid); method: Vibrating tube method
Temperature, K	Mass density, kg/m3	uncertainty
278.155	1633.587	
279.149	1631.744	
280.147	1629.872	
281.147	1627.992	
282.147	1626.112	
283.148	1624.226	
284.147	1622.336	
285.147	1620.445	
286.146	1618.542	
287.146	1616.635	
288.147	1614.728	
289.147	1612.811	
290.146	1610.895	
291.147	1608.97	
292.146	1607.038	
293.147	1605.106	
294.147	1603.163	
295.146	1601.216	
296.146	1599.262	
297.146	1597.305	
298.146	1595.34	
299.146	1593.367	
300.147	1591.386	
301.146	1589.406	
302.146	1587.415	
303.148	1585.414	
304.147	1583.413	
305.146	1581.401	
306.147	1579.382	
307.147	1577.357	
308.146	1575.323	
309.145	1573.284	
310.146	1571.235	
311.146	1569.179	
312.146	1567.122	
313.145	1565.049	
314.146	1562.971	
315.146	1560.887	
316.147	1558.79	
317.146	1556.691	
318.147	1554.576	
319.145	1552.459	
320.146	1550.335	
321.146	1548.202	
322.145	1546.061	
323.145	1543.907	
324.145	1541.748	
325.146	1539.577	
326.145	1537.401	
327.145	1535.212	
328.146	1533.018	
329.146	1530.814	
330.144	1528.6	
331.144	1526.381	
332.146	1524.145	
333.145	1521.908	
334.145	1519.657	
335.145	1517.401	
336.145	1515.129	
337.145	1512.854	
338.144	1510.567	
339.145	1508.275	
340.144	1505.969	
341.144	1503.651	
342.144	1501.33	
343.145	1498.99	
344.147	1496.648	
345.146	1494.291	
346.146	1491.926	
347.147	1489.553	
348.145	1487.165	
349.145	1484.768	
350.145	1482.368	
351.145	1479.944	
352.145	1477.521	
353.145	1475.083	

System: 2,2,3,3,4,4,5,5,5-nonafluoropentanol; phases: Liquid, Gas
Property: Molar enthalpy of vaporization or sublimation, kJ/mol (Liquid); method: Derived by Second law
Temperature, K	Molar enthalpy of vaporization or sublimation, kJ/mol	uncertainty
303.05	53.5	.2

System: 2,2,3,3,4,4,5,5,5-nonafluoropentanol; phases: Liquid, Gas
Property: Vapor or sublimation pressure, kPa (Liquid); method: Closed cell (Static) method
Temperature, K	Vapor or sublimation pressure, kPa	uncertainty
278.14	.2236	
283.1	.3363	
288.07	.502	
293.06	.7329	
298.09	1.07	
303.1	1.5312	
308.06	2.1523	
313.02	2.9794	
317.98	4.0707	
322.99	5.4963	
327.95	7.3149	

System: 2,2,3,3,4,4,5,5,5-nonafluoropentanol; phases: Liquid
Fixed: Pressure, kPa = 101.325
Property: Mass density, kg/m3 (Liquid); method: Vibrating tube method
Temperature, K	Mass density, kg/m3	uncertainty
278.15	1689.575	
279.149	1687.714	
280.148	1685.834	
281.149	1683.953	
282.147	1682.07	
283.149	1680.18	
284.149	1678.289	
285.148	1676.389	
286.149	1674.485	
287.147	1672.58	
288.147	1670.671	
289.147	1668.756	
290.148	1666.836	
291.148	1664.911	
292.148	1662.981	
293.148	1661.048	
294.148	1659.107	
295.149	1657.164	
296.148	1655.216	
297.147	1653.258	
298.149	1651.303	
299.149	1649.336	
300.148	1647.365	
301.149	1645.388	
302.148	1643.409	
303.148	1641.419	
304.148	1639.431	
305.148	1637.433	
306.148	1635.427	
307.148	1633.417	
308.148	1631.401	
309.149	1629.382	
310.148	1627.35	
311.148	1625.318	
312.149	1623.278	
313.148	1621.228	
314.148	1619.175	
315.148	1617.116	
316.148	1615.053	
317.148	1612.981	
318.149	1610.899	
319.149	1608.812	
320.148	1606.722	
321.149	1604.624	
322.149	1602.518	
323.148	1600.404	
324.149	1598.287	
325.149	1596.159	
326.148	1594.028	
327.149	1591.884	
328.148	1589.737	
329.148	1587.585	
330.149	1585.421	
331.148	1583.255	
332.148	1581.077	
333.148	1578.896	
334.148	1576.704	
335.148	1574.506	
336.147	1572.302	
337.148	1570.089	
338.148	1567.872	
339.148	1565.644	
340.148	1563.407	
341.15	1561.166	
342.149	1558.913	
343.148	1556.652	
344.147	1554.386	
345.148	1552.11	
346.141	1549.833	
347.149	1547.453	
348.15	1545.153	
349.148	1542.848	
350.148	1540.529	
351.148	1538.203	
352.148	1535.865	
353.146	1533.524	

System: 1,1-Dihydroperfluorohexanol; phases: Liquid, Gas
Property: Molar enthalpy of vaporization or sublimation, kJ/mol (Liquid); method: Derived by Second law
Temperature, K	Molar enthalpy of vaporization or sublimation, kJ/mol	uncertainty
303.05	59.1	.2

System: 1,1-Dihydroperfluorohexanol; phases: Liquid, Gas
Property: Vapor or sublimation pressure, kPa (Liquid); method: Closed cell (Static) method
Temperature, K	Vapor or sublimation pressure, kPa	uncertainty
278.14	.0688	
283.1	.1098	
288.08	.1712	
293.08	.2615	
298.13	.3944	
303.1	.5819	
308.06	.8405	
313.01	1.2052	
317.98	1.7082	
322.93	2.3494	
327.93	3.2499	

System: 1,1-Dihydroperfluorohexanol; phases: Liquid
Fixed: Pressure, kPa = 101.325
Property: Mass density, kg/m3 (Liquid); method: Vibrating tube method
Temperature, K	Mass density, kg/m3	uncertainty
278.151	1746.4	
279.149	1744.557	
280.147	1742.687	
281.148	1740.819	
282.149	1738.946	
283.148	1737.071	
284.147	1735.191	
285.148	1733.301	
286.148	1731.411	
287.148	1729.518	
288.147	1727.618	
289.148	1725.713	
290.148	1723.806	
291.148	1721.895	
292.148	1719.983	
293.149	1718.063	
294.148	1716.134	
295.149	1714.204	
296.149	1712.265	
297.149	1710.321	
298.148	1708.376	
299.148	1706.428	
300.149	1704.468	
301.149	1702.503	
302.148	1700.54	
303.148	1698.566	
304.148	1696.588	
305.149	1694.606	
306.149	1692.617	
307.148	1690.624	
308.149	1688.624	
309.148	1686.62	
310.148	1684.612	
311.148	1682.592	
312.149	1680.573	
313.148	1678.543	
314.148	1676.512	
315.148	1674.471	
316.147	1672.428	
317.147	1670.376	
318.148	1668.318	
319.148	1666.257	
320.148	1664.189	
321.148	1662.114	
322.147	1660.034	
323.148	1657.947	
324.148	1655.849	
325.148	1653.753	
326.148	1651.646	
327.149	1649.535	
328.149	1647.416	
329.148	1645.288	
330.149	1643.159	
331.146	1641.022	
332.148	1638.874	
333.148	1636.724	
334.148	1634.569	
335.148	1632.409	
336.149	1630.233	
337.148	1628.058	
338.148	1625.88	
339.148	1623.688	
340.147	1621.494	
341.148	1619.29	
342.147	1617.08	
343.148	1614.863	
344.148	1612.643	
345.149	1610.412	
346.148	1608.172	
347.148	1605.925	
348.149	1603.675	
