Measured thermophysical data. Liquid-liquid extraction of p-xylene from their mixtures with alkanes using 1-butyl-1-methylmorpholinium tricyanomethanide and 1- butyl-3-methylimidazolium tricyanomethanide ionic liquids
Source: Fluid Phase Equilib., 2016, 10.1016/j.fluid.2015.12.032
Compound 1: 1-butyl-3-methylimidazolium tricyanomethane, C12H15N5, purity 98%
Compound 2: octane, C8H18, purity 99%
Compound 3: decane, C10H22, purity 99%
Compound 4: p-xylene, C8H10, purity 99%
Compound 5: 1-propanol, C3H8O, purity 99%
Compound 6: acetone, C3H6O, purity 99%
Compound 7: 1-butyl-1-methylmorpholinium tricyanomethanide, C13H20N4O, purity 97%

System: 1-butyl-3-methylimidazolium tricyanomethane; phases: Liquid
Fixed: Pressure, kPa = 101.325
Property: Mass density, kg/m3 (Liquid); method: Vibrating tube method
Temperature, K	Mass density, kg/m3	uncertainty
288.15	1053.6	
298.15	1046.8	
308.15	1040	
318.15	1033.4	
328.15	1026.7	
338.15	1020.1	
348.15	1013.6	
358.15	1007.2	

System: 1-butyl-3-methylimidazolium tricyanomethane; phases: Liquid
Fixed: Pressure, kPa = 101.325
Property: Viscosity, Pa*s (Liquid); method: Falling or rolling sphere viscometry
Temperature, K	Viscosity, Pa*s	uncertainty
288.15	.04368	
298.15	.02778	
308.15	.01922	
318.15	.01293	
328.15	.00998	
338.15	.00778	
348.15	.00629	
358.15	.00518	

System: 1-butyl-1-methylmorpholinium tricyanomethanide; phases: Liquid
Fixed: Pressure, kPa = 101.325
Property: Viscosity, Pa*s (Liquid); method: Falling or rolling sphere viscometry
Temperature, K	Viscosity, Pa*s	uncertainty
288.15	.5004	
298.15	.2255	
308.15	.1184	
318.15	.06989	
328.15	.04414	
338.15	.03031	
348.15	.0219	
358.15	.01633	
368.15	.01277	

System: p-xylene + octane + 1-butyl-1-methylmorpholinium tricyanomethanide; phases: Liquid mixture 2, Liquid mixture 1
Fixed: Temperature, K = 298.15
Fixed: Pressure, kPa = 101
Property: Mole fraction of octane (Liquid mixture 2); method: Chromatography
Property: Mole fraction of p-xylene (Liquid mixture 1); method: Chromatography
Property: Mole fraction of octane (Liquid mixture 1); method: Chromatography
Mole fraction of p-xylene	Mole fraction of octane	uncertainty	Mole fraction of p-xylene	uncertainty	Mole fraction of octane	uncertainty
0	.008	.005	0	.003	1	.003
.295	.005	.005	.807	.003	.193	.003
.357	.007	.005	.897	.003	.092	.003
.38	0	.005	1	.003	0	.003
.027	.006	.005	.053	.003	.926	.003
.065	.008	.005	.149	.003	.846	.003
.114	.007	.005	.29	.003	.71	.003
.144	.007	.005	.384	.003	.616	.003
.183	.006	.005	.488	.003	.512	.003
.203	.005	.005	.563	.003	.437	.003
.233	.005	.005	.638	.003	.362	.003
.258	.005	.005	.713	.003	.287	.003

System: p-xylene + decane + 1-butyl-1-methylmorpholinium tricyanomethanide; phases: Liquid mixture 2, Liquid mixture 1
Fixed: Temperature, K = 298.15
Fixed: Pressure, kPa = 101
Property: Mole fraction of decane (Liquid mixture 2); method: Chromatography
Property: Mole fraction of p-xylene (Liquid mixture 1); method: Chromatography
Property: Mole fraction of decane (Liquid mixture 1); method: Chromatography
Mole fraction of p-xylene	Mole fraction of decane	uncertainty	Mole fraction of p-xylene	uncertainty	Mole fraction of decane	uncertainty
0	.003	.005	0	.003	1	.003
.34	.002	.005	.914	.003	.086	.003
.38	0	.005	1	.003	0	.003
.053	.002	.005	.145	.003	.855	.003
.141	.002	.005	.419	.003	.581	.003
.173	.002	.005	.549	.003	.451	.003
.228	.002	.005	.636	.003	.364	.003
.252	.002	.005	.695	.003	.305	.003
.268	.002	.005	.754	.003	.246	.003
.293	.002	.005	.81	.003	.19	.003
.32	.002	.005	.867	.003	.133	.003

System: p-xylene + octane + 1-butyl-3-methylimidazolium tricyanomethane; phases: Liquid mixture 2, Liquid mixture 1
Fixed: Temperature, K = 298.15
Fixed: Pressure, kPa = 101
Property: Mole fraction of octane (Liquid mixture 2); method: Chromatography
Property: Mole fraction of p-xylene (Liquid mixture 1); method: Chromatography
Property: Mole fraction of octane (Liquid mixture 1); method: Chromatography
Mole fraction of p-xylene	Mole fraction of octane	uncertainty	Mole fraction of p-xylene	uncertainty	Mole fraction of octane	uncertainty
0	.018	.005	0	.003	1	.003
.382	.007	.005	.802	.003	.198	.003
.428	.005	.005	.883	.003	.117	.003
.486	0	.005	1	.003	0	.003
.021	.015	.005	.037	.003	.963	.003
.065	.017	.005	.12	.003	.88	.003
.155	.014	.005	.297	.003	.703	.003
.174	.013	.005	.347	.003	.653	.003
.225	.013	.005	.457	.003	.543	.003
.277	.014	.005	.551	.003	.449	.003
.306	.01	.005	.632	.003	.368	.003
.348	.01	.005	.718	.003	.282	.003

System: p-xylene + decane + 1-butyl-3-methylimidazolium tricyanomethane; phases: Liquid mixture 2, Liquid mixture 1
Fixed: Temperature, K = 298.15
Fixed: Pressure, kPa = 101
Property: Mole fraction of decane (Liquid mixture 2); method: Chromatography
Property: Mole fraction of p-xylene (Liquid mixture 1); method: Chromatography
Property: Mole fraction of decane (Liquid mixture 1); method: Chromatography
Mole fraction of p-xylene	Mole fraction of decane	uncertainty	Mole fraction of p-xylene	uncertainty	Mole fraction of decane	uncertainty
0	.009	.005	0	.003	1	.003
.397	.004	.005	.824	.003	.176	.003
.43	.003	.005	.884	.003	.116	.003
.486	0	.005	1	.003	0	.003
.036	.008	.005	.075	.003	.925	.003
.077	.008	.005	.158	.003	.842	.003
.106	.007	.005	.231	.003	.769	.003
.185	.008	.005	.382	.003	.618	.003
.213	.006	.005	.484	.003	.516	.003
.272	.005	.005	.576	.003	.424	.003
.305	.006	.005	.642	.003	.358	.003
.358	.004	.005	.753	.003	.247	.003
