Measured thermophysical data. Liquid-liquid equilibria of ionic liquid 1-(2-methoxyethyl)-3-methylimidazolium bromide + potassium carbonate, potassium phosphate, dipotassium phosphate + water aqueous two-phase systems
Source: Fluid Phase Equilib., 2014, 10.1016/j.fluid.2013.11.046
Compound 1: 1-(2-methoxyethyl)-3-methylimidazolium bromide, C7H13BrN2O, purity 99%
Compound 2: potassium carbonate, CK2O3, purity 99%
Compound 3: potassium phosphate, K3O4P, purity 99%
Compound 4: dipotassium phosphate, HK2O4P, purity 99%
Compound 5: water, H2O, purity 99.9%

System: potassium carbonate + water + 1-(2-methoxyethyl)-3-methylimidazolium bromide; phases: Liquid mixture 1, Liquid mixture 2
Fixed: Pressure, kPa = 100
Property: Mass fraction of potassium carbonate (Liquid mixture 1); method: Titration method
Temperature, K	Mass fraction of 1-(2-methoxyethyl)-3-methylimidazolium bromide	Mass fraction of potassium carbonate	uncertainty
288.15	.6765	.0098	.0001
288.15	.6507	.0123	.0001
288.15	.6269	.0151	.0001
288.15	.6001	.0188	.0001
288.15	.5797	.0223	.0001
288.15	.542	.0298	.0001
288.15	.5199	.0345	.0001
288.15	.4941	.0412	.0001
288.15	.4671	.0496	.0001
288.15	.4487	.0562	.0001
288.15	.4234	.0646	.0001
288.15	.4017	.0746	.0001
288.15	.3739	.09	.0001
288.15	.3586	.0957	.0001
288.15	.3336	.1072	.0001
288.15	.3087	.1198	.0001
288.15	.2885	.1297	.0001
288.15	.2656	.1436	.0001
288.15	.2457	.1556	.0001
288.15	.2293	.1663	.0001
288.15	.2121	.1782	.0001
288.15	.1944	.1904	.0001
288.15	.1727	.2037	.0001
288.15	.1601	.2133	.0001
288.15	.1333	.2332	.0001
288.15	.1179	.2456	.0001
288.15	.1034	.2588	.0001
288.15	.0929	.2693	.0001
288.15	.0804	.2824	.0001
288.15	.0718	.2929	.0001
298.15	.6505	.0123	.0001
298.15	.6354	.014	.0001
298.15	.6015	.0189	.0001
298.15	.5759	.0231	.0001
298.15	.5605	.0262	.0001
298.15	.5339	.032	.0001
298.15	.5123	.0373	.0001
298.15	.479	.0469	.0001
298.15	.4474	.0581	.0001
298.15	.4368	.0616	.0001
298.15	.411	.0763	.0001
298.15	.3741	.0871	.0001
298.15	.3483	.1007	.0001
298.15	.3244	.1114	.0001
298.15	.3063	.1224	.0001
298.15	.2842	.1322	.0001
298.15	.2725	.139	.0001
298.15	.2547	.1534	.0001
298.15	.2318	.1646	.0001
298.15	.2162	.1755	.0001
298.15	.1934	.1901	.0001
298.15	.1711	.2034	.0001
298.15	.1564	.215	.0001
298.15	.1393	.2271	.0001
298.15	.1269	.2358	.0001
298.15	.1088	.2509	.0001
298.15	.0962	.2652	.0001
298.15	.0877	.2806	.0001
298.15	.0769	.2913	.0001
308.15	.6498	.0143	.0001
308.15	.6197	.0186	.0001
308.15	.5907	.0234	.0001
308.15	.5617	.0316	.0001
308.15	.5358	.0351	.0001
308.15	.519	.0401	.0001
308.15	.4799	.0513	.0001
308.15	.4585	.0586	.0001
308.15	.4305	.067	.0001
308.15	.4018	.0819	.0001
308.15	.3743	.092	.0001
308.15	.3536	.1049	.0001
308.15	.3429	.1099	.0001
308.15	.3222	.1189	.0001
308.15	.3102	.1269	.0001
308.15	.2904	.1378	.0001
308.15	.2651	.1536	.0001
308.15	.2415	.1655	.0001
308.15	.2354	.1715	.0001
308.15	.2056	.1896	.0001
308.15	.1875	.201	.0001
308.15	.1652	.2158	.0001
308.15	.1477	.2284	.0001
308.15	.14	.2343	.0001
308.15	.1258	.2461	.0001
308.15	.1137	.2562	.0001
308.15	.0999	.2681	.0001
308.15	.087	.2814	.0001
308.15	.0749	.2947	.0001
308.15	.0637	.309	.0001

System: potassium carbonate + water + 1-(2-methoxyethyl)-3-methylimidazolium bromide; phases: Liquid mixture 2, Liquid mixture 1
Fixed: Pressure, kPa = 100
Property: Mass fraction of 1-(2-methoxyethyl)-3-methylimidazolium bromide (Liquid mixture 2); method: Titration method
Property: Mass fraction of 1-(2-methoxyethyl)-3-methylimidazolium bromide (Liquid mixture 1); method: Titration method
Property: Mass fraction of potassium carbonate (Liquid mixture 1); method: Titration method
Temperature, K	Mass fraction of potassium carbonate	Mass fraction of 1-(2-methoxyethyl)-3-methylimidazolium bromide	uncertainty	Mass fraction of 1-(2-methoxyethyl)-3-methylimidazolium bromide	uncertainty	Mass fraction of potassium carbonate	uncertainty
288.15	.3506	.0356	.0001	.6312	.0001	.0146	.0001
288.15	.3932	.0194	.0001	.6809	.0001	.0095	.0001
288.15	.319	.0533	.0001	.589	.0001	.0205	.0001
288.15	.2765	.0867	.0001	.5106	.0001	.0369	.0001
298.15	.3691	.0285	.0001	.6915	.0001	.0083	.0001
298.15	.3475	.038	.0001	.6178	.0001	.0164	.0001
298.15	.2698	.0935	.0001	.4651	.0001	.0519	.0001
298.15	.319	.0542	.0001	.5541	.0001	.0275	.0001
308.15	.3013	.0711	.0001	.5403	.0001	.034	.0001
308.15	.397	.0204	.0001	.7476	.0001	.0061	.0001
308.15	.3427	.0432	.0001	.6141	.0001	.0196	.0001
308.15	.3846	.0245	.0001	.6516	.0001	.0145	.0001

System: water + dipotassium phosphate + 1-(2-methoxyethyl)-3-methylimidazolium bromide; phases: Liquid mixture 1, Liquid mixture 2
Fixed: Pressure, kPa = 100
Property: Mass fraction of dipotassium phosphate (Liquid mixture 1); method: Titration method
Temperature, K	Mass fraction of 1-(2-methoxyethyl)-3-methylimidazolium bromide	Mass fraction of dipotassium phosphate	uncertainty
288.15	.6656	.005	.0001
288.15	.6444	.0063	.0001
288.15	.6137	.0087	.0001
288.15	.5751	.0129	.0001
288.15	.5539	.0159	.0001
288.15	.5192	.0211	.0001
288.15	.4889	.0273	.0001
288.15	.4621	.0341	.0001
288.15	.4195	.0473	.0001
288.15	.3975	.0556	.0001
288.15	.3594	.0731	.0001
288.15	.3434	.0802	.0001
288.15	.3225	.0925	.0001
288.15	.3095	.098	.0001
288.15	.2848	.1148	.0001
288.15	.2699	.124	.0001
288.15	.2555	.1331	.0001
288.15	.2357	.1488	.0001
288.15	.2099	.1668	.0001
288.15	.1951	.1786	.0001
288.15	.1798	.1913	.0001
288.15	.1616	.2052	.0001
288.15	.1495	.2161	.0001
288.15	.133	.2302	.0001
288.15	.111	.2504	.0001
288.15	.1036	.2578	.0001
288.15	.0957	.2662	.0001
288.15	.0818	.2815	.0001
288.15	.0725	.2931	.0001
298.15	.6404	.007	.0001
298.15	.6158	.0089	.0001
298.15	.589	.0115	.0001
298.15	.5592	.0153	.0001
298.15	.535	.0191	.0001
298.15	.4881	.0287	.0001
298.15	.4593	.0362	.0001
298.15	.4262	.0474	.0001
298.15	.4056	.0592	.0001
298.15	.3705	.0706	.0001
298.15	.3342	.0892	.0001
298.15	.3083	.1018	.0001
298.15	.2824	.1189	.0001
298.15	.2672	.1297	.0001
298.15	.2476	.1423	.0001
298.15	.2339	.1519	.0001
298.15	.2155	.1677	.0001
298.15	.1968	.1832	.0001
298.15	.1796	.1955	.0001
298.15	.1697	.2035	.0001
298.15	.1599	.2126	.0001
298.15	.1477	.2224	.0001
298.15	.1278	.238	.0001
298.15	.1098	.2557	.0001
298.15	.097	.2703	.0001
298.15	.0844	.2837	.0001
298.15	.0799	.2882	.0001
298.15	.0637	.3098	.0001
308.15	.6123	.0107	.0001
308.15	.575	.0152	.0001
308.15	.5553	.0183	.0001
308.15	.5053	.0279	.0001
308.15	.467	.0383	.0001
308.15	.442	.0451	.0001
308.15	.4288	.0512	.0001
308.15	.4042	.0602	.0001
308.15	.3885	.067	.0001
308.15	.3594	.084	.0001
308.15	.34	.0899	.0001
308.15	.319	.1022	.0001
308.15	.3049	.112	.0001
308.15	.2876	.1237	.0001
308.15	.2723	.1315	.0001
308.15	.249	.1481	.0001
308.15	.2312	.1602	.0001
308.15	.2206	.1684	.0001
308.15	.2056	.1813	.0001
308.15	.1779	.2015	.0001
308.15	.1638	.2141	.0001
308.15	.1511	.2245	.0001
308.15	.1334	.2399	.0001
308.15	.1223	.2502	.0001
308.15	.1046	.267	.0001
308.15	.0944	.2783	.0001
308.15	.0853	.2981	.0001

System: water + dipotassium phosphate + 1-(2-methoxyethyl)-3-methylimidazolium bromide; phases: Liquid mixture 2, Liquid mixture 1
Fixed: Pressure, kPa = 100
Property: Mass fraction of 1-(2-methoxyethyl)-3-methylimidazolium bromide (Liquid mixture 2); method: Titration method
Property: Mass fraction of 1-(2-methoxyethyl)-3-methylimidazolium bromide (Liquid mixture 1); method: Titration method
Property: Mass fraction of dipotassium phosphate (Liquid mixture 1); method: Titration method
Temperature, K	Mass fraction of dipotassium phosphate	Mass fraction of 1-(2-methoxyethyl)-3-methylimidazolium bromide	uncertainty	Mass fraction of 1-(2-methoxyethyl)-3-methylimidazolium bromide	uncertainty	Mass fraction of dipotassium phosphate	uncertainty
298.15	.3983	.0221	.0001	.58	.0001	.0127	.0001
298.15	.4308	.0107	.0001	.6061	.0001	.0179	.0001
298.15	.3251	.0546	.0001	.4566	.0001	.0372	.0001
298.15	.3653	.034	.0001	.5198	.0001	.0219	.0001

System: water + potassium phosphate + 1-(2-methoxyethyl)-3-methylimidazolium bromide; phases: Liquid mixture 1, Liquid mixture 2
Fixed: Pressure, kPa = 100
Property: Mass fraction of potassium phosphate (Liquid mixture 1); method: Titration method
Temperature, K	Mass fraction of 1-(2-methoxyethyl)-3-methylimidazolium bromide	Mass fraction of potassium phosphate	uncertainty
288.15	.6341	.0045	.0001
288.15	.6129	.0059	.0001
288.15	.5789	.0088	.0001
288.15	.552	.0121	.0001
288.15	.5191	.0165	.0001
288.15	.4796	.024	.0001
288.15	.4442	.0333	.0001
288.15	.4205	.0406	.0001
288.15	.3953	.0482	.0001
288.15	.3689	.0605	.0001
288.15	.3474	.0682	.0001
288.15	.3215	.0788	.0001
288.15	.3029	.0881	.0001
288.15	.2778	.1004	.0001
288.15	.2578	.1107	.0001
288.15	.2398	.1192	.0001
288.15	.2201	.1324	.0001
288.15	.2139	.1355	.0001
288.15	.1984	.1446	.0001
288.15	.176	.1581	.0001
288.15	.1585	.1689	.0001
288.15	.1439	.1774	.0001
288.15	.1289	.1873	.0001
288.15	.1106	.201	.0001
288.15	.1	.2093	.0001
288.15	.087	.2206	.0001
288.15	.0701	.2368	.0001
288.15	.059	.2497	.0001
288.15	.0489	.2661	.0001
298.15	.6298	.0061	.0001
298.15	.5886	.0097	.0001
298.15	.5496	.0144	.0001
298.15	.4998	.0227	.0001
298.15	.4695	.0298	.0001
298.15	.4338	.0371	.0001
298.15	.4098	.048	.0001
298.15	.3899	.0533	.0001
298.15	.3592	.0652	.0001
298.15	.33	.0756	.0001
298.15	.3127	.0871	.0001
298.15	.2953	.0923	.0001
298.15	.277	.106	.0001
298.15	.2505	.1172	.0001
298.15	.2416	.1253	.0001
298.15	.2289	.1348	.0001
298.15	.2079	.1453	.0001
298.15	.2025	.1525	.0001
298.15	.1839	.1634	.0001
298.15	.1657	.1756	.0001
298.15	.1457	.1894	.0001
298.15	.1238	.2048	.0001
298.15	.1124	.2129	.0001
298.15	.0949	.2275	.0001
298.15	.0832	.2387	.0001
298.15	.0722	.2506	.0001
298.15	.0662	.2579	.0001
298.15	.0536	.2732	.0001
308.15	.6465	.0055	.0001
308.15	.6086	.0084	.0001
308.15	.5849	.0107	.0001
308.15	.5644	.0136	.0001
308.15	.5416	.016	.0001
308.15	.5051	.0244	.0001
308.15	.4758	.0298	.0001
308.15	.4593	.0344	.0001
308.15	.4305	.0432	.0001
308.15	.4048	.0515	.0001
308.15	.3817	.0581	.0001
308.15	.3626	.0644	.0001
308.15	.3361	.0775	.0001
308.15	.3217	.0826	.0001
308.15	.2999	.0931	.0001
308.15	.2816	.1028	.0001
308.15	.2463	.1162	.0001
308.15	.22	.1353	.0001
308.15	.2049	.1444	.0001
308.15	.1897	.1554	.0001
308.15	.1729	.1648	.0001
308.15	.1584	.1735	.0001
308.15	.1377	.1884	.0001
308.15	.1323	.1907	.0001
308.15	.1145	.2042	.0001
308.15	.0932	.2205	.0001
308.15	.0787	.234	.0001
308.15	.0632	.2496	.0001
308.15	.0524	.2627	.0001

System: water + potassium phosphate + 1-(2-methoxyethyl)-3-methylimidazolium bromide; phases: Liquid mixture 2, Liquid mixture 1
Fixed: Pressure, kPa = 100
Property: Mass fraction of 1-(2-methoxyethyl)-3-methylimidazolium bromide (Liquid mixture 2); method: Titration method
Property: Mass fraction of 1-(2-methoxyethyl)-3-methylimidazolium bromide (Liquid mixture 1); method: Titration method
Property: Mass fraction of potassium phosphate (Liquid mixture 1); method: Titration method
Temperature, K	Mass fraction of potassium phosphate	Mass fraction of 1-(2-methoxyethyl)-3-methylimidazolium bromide	uncertainty	Mass fraction of 1-(2-methoxyethyl)-3-methylimidazolium bromide	uncertainty	Mass fraction of potassium phosphate	uncertainty
298.15	.2545	.0703	.0001	.4109	.0001	.0456	.0001
298.15	.3015	.0376	.0001	.5346	.0001	.0163	.0001
298.15	.3392	.0212	.0001	.5912	.0001	.0095	.0001
298.15	.3665	.0134	.0001	.6439	.0001	.0054	.0001
