Measured thermophysical data. The solubility measurement and modeling of CO2 in aqueous solution of N-methyldiethanolaminen + 2-amino-2-methyl-1- propanol + piperazine at high pressures
Source: Fluid Phase Equilib., 2015, 10.1016/j.fluid.2015.04.016
Compound 1: N-methyldiethanolamine, C5H13NO2, purity 98%
Compound 2: 2-amino-2-methyl-1-propanol, C4H11NO, purity 97%
Compound 3: water, H2O, purity 99.8%

System: N-methyldiethanolamine + 2-amino-2-methyl-1-propanol + water; phases: Liquid
Fixed: Pressure, kPa = 101
Fixed: Mass fraction of N-methyldiethanolamine = .25
Property: Mass density, kg/m3 (Liquid); method: Pycnometric method
Mass fraction of 2-amino-2-methyl-1-propanol	Temperature, K	Mass density, kg/m3	uncertainty
.25	303.15	1018.2	1.0182
.25	308.15	1014.2	1.0142
.25	313.15	1010.6	1.0106
.25	318.15	1006.6	1.0066
.25	323.15	1002.9	1.0029
.25	328.15	999.8	.9998
.25	333.15	995.8	.9958
.25	338.15	991.6	.9916
.25	343.15	987.9	.9879
.15	303.15	1020.8	1.0208
.15	308.15	1017.4	1.0174
.15	313.15	1013.9	1.0139
.15	318.15	1011	1.011
.15	323.15	1008	1.008
.15	328.15	1004.1	1.0041
.15	333.15	1001	1.001
.15	338.15	996.4	.9964
.15	343.15	993.5	.9935
.2	303.15	1019.5	1.0195
.2	308.15	1016.6	1.0166
.2	313.15	1012.2	1.0122
.2	318.15	1008.7	1.0087
.2	323.15	1005.4	1.0054
.2	328.15	1002.2	1.0022
.2	333.15	997.9	.9979
.2	338.15	994.2	.9942
.2	343.15	991.3	.9913
