Measured thermophysical data. Measurement and correlation of solubility of benzamide in supercritical carbon  dioxide with and without cosolvent
Source: Fluid Phase Equilib., 2011, 10.1016/j.fluid.2011.04.021
Compound 1: carbon dioxide, CO2, purity 99.9%
Compound 2: benzamide, C7H7NO, purity 99%
Compound 3: ethanol, C2H6O, purity 99.7%
Compound 4: acetone, C3H6O, purity 99.9%
Compound 5: 1,2-ethanediol, C2H6O2, purity 99.5%

System: benzamide + carbon dioxide; phases: Gas, Crystal
Property: Mole fraction of benzamide (Gas); method: Flowing gas saturation
Temperature, K	Pressure, kPa	Mole fraction of benzamide	uncertainty
308	11000	.0000191	
308	13000	.0000314	
308	16000	.0000436	
308	18000	.0000526	
308	21000	.0000619	
318	11000	.000021	
318	13000	.0000453	
318	16000	.0000683	
318	18000	.000088	
318	21000	.0001054	
328	11000	.0000223	
328	13000	.0000521	
328	16000	.0000983	
328	18000	.0001282	
328	21000	.0001605	

System: benzamide + ethanol + carbon dioxide; phases: Gas, Crystal
Property: Mole fraction of benzamide (Gas); method: Flowing gas saturation
Solvent: Mole fraction of ethanol	Temperature, K	Pressure, kPa	Mole fraction of benzamide	uncertainty
.035	318	11000	.0000579	
.035	318	13000	.0001871	
.035	318	16000	.0004438	
.035	318	18000	.0006048	
.035	318	21000	.0007483	

System: benzamide + acetone + carbon dioxide; phases: Gas, Crystal
Property: Mole fraction of benzamide (Gas); method: Flowing gas saturation
Solvent: Mole fraction of acetone	Temperature, K	Pressure, kPa	Mole fraction of benzamide	uncertainty
.035	318	11	.0000493	
.035	318	13	.0001119	
.035	318	16	.0002085	
.035	318	18	.000266	
.035	318	21	.0003399	

System: benzamide + 1,2-ethanediol + carbon dioxide; phases: Gas, Crystal
Property: Mole fraction of benzamide (Gas); method: Flowing gas saturation
Solvent: Mole fraction of 1,2-ethanediol	Temperature, K	Pressure, kPa	Mole fraction of benzamide	uncertainty
.035	318	11000	.0000507	
.035	318	13000	.000102	
.035	318	16000	.0001611	
.035	318	18000	.0001891	
.035	318	21000	.0002403	
