Measured thermophysical data. Feasibility of phosphonium-based ionic liquids as solvents for extractive desulfurization of liquid fuels
Source: Fluid Phase Equilib., 2015, 10.1016/j.fluid.2015.05.015
Compound 1: trihexyl(tetradecyl)phosphonium chloride, C32H68ClP, purity 95%
Compound 2: tetradecyltrihexylphosphonium bromide, C32H68BrP, purity 96%
Compound 3: trihexyltetradecylphosphonium bis(2,4,4-trimethylpentyl)phosphinate, C48H102O2P2, purity 95%
Compound 4: tetradecyl(trihexyl)phosphonium dicyanamide, C34H68N3P, purity 95%
Compound 5: triisobutylmethylphosphonium p-toluenesulfonate, C20H37O3PS, purity 98%
Compound 6: trihexyl(tetradecyl)phosphonium bis(trifluoromethylsulfonyl)imide, C34H68F6NO4PS2, purity 97%
Compound 7: dibenzothiophene, C12H8S, purity 98%

System: dibenzothiophene + trihexyl(tetradecyl)phosphonium chloride; phases: Liquid, Crystal
Fixed: Pressure, kPa = 101.325
Property: Mass fraction of dibenzothiophene (Liquid); method: Chromatography
Temperature, K	Mass fraction of dibenzothiophene	uncertainty
303.15	.0009	.000072
313.15	.0089	.000712
323.15	.0709	.005672
333.15	.1913	.015304
343.15	.36	.0288
353.15	.5293	.042344

System: dibenzothiophene + tetradecyltrihexylphosphonium bromide; phases: Liquid, Crystal
Fixed: Pressure, kPa = 101.325
Property: Mass fraction of dibenzothiophene (Liquid); method: Chromatography
Temperature, K	Mass fraction of dibenzothiophene	uncertainty
303.15	.004	.00032
313.15	.068	.00544
323.15	.1815	.01452
333.15	.3316	.026528
343.15	.4276	.034208
353.15	.4691	.037528

System: dibenzothiophene + trihexyltetradecylphosphonium bis(2,4,4-trimethylpentyl)phosphinate; phases: Liquid, Crystal
Fixed: Pressure, kPa = 101.325
Property: Mass fraction of dibenzothiophene (Liquid); method: Chromatography
Temperature, K	Mass fraction of dibenzothiophene	uncertainty
303.15	.0007	.000056
313.15	.0075	.0006
323.15	.0324	.002592
333.15	.1014	.008112
343.15	.1949	.015592
353.15	.2693	.021544

System: dibenzothiophene + tetradecyl(trihexyl)phosphonium dicyanamide; phases: Liquid, Crystal
Fixed: Pressure, kPa = 101.325
Property: Mass fraction of dibenzothiophene (Liquid); method: Chromatography
Temperature, K	Mass fraction of dibenzothiophene	uncertainty
303.15	.0159	.001272
313.15	.0812	.006496
323.15	.2235	.01788
333.15	.3017	.024136
343.15	.4345	.03476
353.15	.4696	.037568

System: dibenzothiophene + triisobutylmethylphosphonium p-toluenesulfonate; phases: Liquid, Crystal
Fixed: Pressure, kPa = 101.325
Property: Mass fraction of dibenzothiophene (Liquid); method: Chromatography
Temperature, K	Mass fraction of dibenzothiophene	uncertainty
303.15	.0065	.00052
313.15	.0345	.00276
323.15	.1221	.009768
333.15	.2656	.021248
343.15	.3566	.028528
353.15	.3943	.031544

System: dibenzothiophene + trihexyl(tetradecyl)phosphonium bis(trifluoromethylsulfonyl)imide; phases: Liquid, Crystal
Fixed: Pressure, kPa = 101.325
Property: Mass fraction of dibenzothiophene (Liquid); method: Chromatography
Temperature, K	Mass fraction of dibenzothiophene	uncertainty
303.15	.1039	.008312
313.15	.1211	.009688
323.15	.1282	.010256
333.15	.1869	.014952
343.15	.3251	.026008
353.15	.4226	.033808
