Measured thermophysical data. Experimental study of phase equilibria in aqueous mixtures of phosphoric acid with isoamyl acetate and methyl isoamyl ketone at T = (298.2, 308.2, and 318.2) K
Source: Fluid Phase Equilib., 2013, 10.1016/j.fluid.2012.09.038
Compound 1: phosphoric acid, H3O4P, purity 85%
Compound 2: acetic acid, isoamyl ester, C7H14O2, purity 99%
Compound 3: isopentyl methyl ketone, C7H14O, purity 99%
Compound 4: water, H2O, purity 99.9%

System: acetic acid, isoamyl ester; phases: Liquid
Fixed: Pressure, kPa = 101.325
Property: Mass density, kg/m3 (Liquid); method: Vibrating tube method
Temperature, K	Mass density, kg/m3	uncertainty
298.2	866.7	.001

System: acetic acid, isoamyl ester; phases: Liquid
Fixed: Pressure, kPa = 101.325
Property: Refractive index (Na D-line) (Liquid); method: Standard Abbe refractometry
Temperature, K	Refractive index (Na D-line)	uncertainty
298.2	1.3975	.0002

System: isopentyl methyl ketone; phases: Liquid
Fixed: Pressure, kPa = 101.325
Property: Mass density, kg/m3 (Liquid); method: Vibrating tube method
Temperature, K	Mass density, kg/m3	uncertainty
293.2	887.9	.001

System: isopentyl methyl ketone; phases: Liquid
Fixed: Pressure, kPa = 101.325
Property: Refractive index (Na D-line) (Liquid); method: Standard Abbe refractometry
Temperature, K	Refractive index (Na D-line)	uncertainty
293.2	1.4049	.0002

System: water; phases: Liquid
Fixed: Pressure, kPa = 101.325
Property: Mass density, kg/m3 (Liquid); method: Vibrating tube method
Temperature, K	Mass density, kg/m3	uncertainty
298.2	997	.001

System: water; phases: Liquid
Fixed: Pressure, kPa = 101.325
Property: Refractive index (Na D-line) (Liquid); method: Standard Abbe refractometry
Temperature, K	Refractive index (Na D-line)	uncertainty
298.2	1.3324	.0002

System: acetic acid, isoamyl ester + phosphoric acid + water; phases: Liquid, Crystal
Fixed: Pressure, kPa = 101
Property: Mass fraction of phosphoric acid (Liquid); method: Index of refraction calibration data
Temperature, K	Mass fraction of water	Mass fraction of phosphoric acid	uncertainty
298.2	.003	0	.0008
298.2	.0042	.033	.0008
298.2	.0143	.0665	.0008
298.2	.0187	.0954	.0008
298.2	.0294	.1411	.0008
298.2	.0437	.2205	.0008
298.2	.0747	.3794	.0008
298.2	.1027	.5059	.0008
298.2	.1235	.5861	.0008
298.2	.1446	.6439	.0008
298.2	.1638	.6789	.0008
298.2	.2272	.6704	.0008
298.2	.2947	.627	.0008
298.2	.4061	.5501	.0008
298.2	.521	.4515	.0008
298.2	.5776	.3991	.0008
298.2	.6797	.3071	.0008
298.2	.7834	.2085	.0008
298.2	.9113	.0833	.0008
298.2	.998	0	.0008
308.2	.0044	0	.0008
308.2	.0038	.0296	.0008
308.2	.0158	.0681	.0008
308.2	.0195	.0963	.0008
308.2	.0364	.1436	.0008
308.2	.0497	.2254	.0008
308.2	.0846	.3889	.0008
308.2	.105	.4901	.0008
308.2	.1259	.5647	.0008
308.2	.1481	.6247	.0008
308.2	.1752	.6536	.0008
308.2	.2381	.6487	.0008
308.2	.3201	.6055	.0008
308.2	.433	.5212	.0008
308.2	.5344	.4394	.0008
308.2	.6001	.3746	.0008
308.2	.6702	.3144	.0008
308.2	.7986	.1942	.0008
308.2	.9145	.0807	.0008
308.2	.9969	0	.0008
318.2	.0059	0	.0008
318.2	.0039	.0289	.0008
318.2	.0138	.0618	.0008
318.2	.0208	.0979	.0008
318.2	.0381	.1503	.0008
318.2	.0589	.2277	.0008
318.2	.0829	.3506	.0008
318.2	.1073	.4684	.0008
318.2	.1362	.5524	.0008
318.2	.1576	.6055	.0008
318.2	.1877	.6247	.0008
318.2	.2589	.6153	.0008
318.2	.3296	.5864	.0008
318.2	.4432	.5092	.0008
318.2	.5202	.4467	.0008
318.2	.5857	.3866	.0008
318.2	.6856	.2952	.0008
318.2	.7936	.1965	.0008
318.2	.9297	.0642	.0008
318.2	.9955	0	.0008

System: acetic acid, isoamyl ester + phosphoric acid + water; phases: Liquid mixture 2, Liquid mixture 1
Property: Mass fraction of phosphoric acid (Liquid mixture 2); method: Index of refraction calibration data
Property: Mass fraction of water (Liquid mixture 2); method: Index of refraction calibration data
Property: Mass fraction of water (Liquid mixture 1); method: Index of refraction calibration data
Property: Mass fraction of phosphoric acid (Liquid mixture 1); method: Index of refraction calibration data
Property: Mass fraction of acetic acid, isoamyl ester (Liquid mixture 1); method: Index of refraction calibration data
Temperature, K	Pressure, kPa	Mass fraction of acetic acid, isoamyl ester	Mass fraction of phosphoric acid	uncertainty	Mass fraction of water	uncertainty	Mass fraction of water	uncertainty	Mass fraction of phosphoric acid	uncertainty	Mass fraction of acetic acid, isoamyl ester	uncertainty
298.2	101.325	.976	.019	.001	.005	.001	.834	.001	.161	.001	.005	.001
298.2	101.325	.951	.041	.001	.008	.001	.723	.001	.268	.001	.009	.001
298.2	101.325	.931	.057	.001	.012	.001	.642	.001	.342	.001	.016	.001
298.2	101.325	.908	.076	.001	.016	.001	.586	.001	.392	.001	.022	.001
298.2	101.325	.891	.091	.001	.018	.001	.545	.001	.429	.001	.026	.001
298.2	101.325	.874	.105	.001	.021	.001	.503	.001	.466	.001	.031	.001
308.2	101.325	.975	.019	.001	.006	.001	.821	.001	.173	.001	.006	.001
308.2	101.325	.944	.047	.001	.009	.001	.718	.001	.273	.001	.009	.001
308.2	101.325	.925	.062	.001	.013	.001	.639	.001	.344	.001	.017	.001
308.2	101.325	.901	.083	.001	.016	.001	.579	.001	.398	.001	.023	.001
308.2	101.325	.885	.096	.001	.019	.001	.541	.001	.433	.001	.026	.001
308.2	101.325	.859	.117	.001	.024	.001	.498	.001	.469	.001	.033	.001
318.2	101.325	.968	.024	.001	.008	.001	.812	.001	.182	.001	.006	.001
318.2	101.325	.934	.054	.001	.012	.001	.715	.001	.275	.001	.01	.001
318.2	101.325	.916	.069	.001	.015	.001	.636	.001	.347	.001	.017	.001
318.2	101.325	.878	.101	.001	.021	.001	.574	.001	.401	.001	.025	.001
318.2	101.325	.856	.119	.001	.025	.001	.535	.001	.437	.001	.028	.001
318.2	101.325	.84	.132	.001	.028	.001	.496	.001	.471	.001	.033	.001

System: isopentyl methyl ketone + phosphoric acid + water; phases: Liquid, Crystal
Fixed: Pressure, kPa = 101
Property: Mass fraction of phosphoric acid (Liquid); method: Index of refraction calibration data
Temperature, K	Mass fraction of water	Mass fraction of phosphoric acid	uncertainty
298.2	.0042	0	.0008
298.2	.0154	.0422	.0008
298.2	.0316	.0872	.0008
298.2	.0519	.1526	.0008
298.2	.0615	.1916	.0008
298.2	.0718	.2519	.0008
298.2	.1017	.3474	.0008
298.2	.1372	.4755	.0008
298.2	.1683	.5549	.0008
298.2	.1901	.615	.0008
298.2	.2413	.6199	.0008
298.2	.2993	.5887	.0008
298.2	.3776	.5404	.0008
298.2	.5081	.4483	.0008
298.2	.563	.4009	.0008
298.2	.6639	.3114	.0008
298.2	.7884	.1972	.0008
298.2	.9088	.0833	.0008
298.2	.995	0	.0008
298.2	.0042	0	.0008
308.2	.0054	0	.0008
308.2	.0161	.0434	.0008
308.2	.0311	.0866	.0008
308.2	.0517	.1519	.0008
308.2	.0668	.1917	.0008
308.2	.0828	.2471	.0008
308.2	.1076	.3432	.0008
308.2	.1472	.4684	.0008
308.2	.1721	.5478	.0008
308.2	.2173	.5693	.0008
308.2	.2669	.5741	.0008
308.2	.3463	.5429	.0008
308.2	.4041	.5163	.0008
308.2	.5144	.4421	.0008
308.2	.5655	.3986	.0008
308.2	.6716	.3074	.0008
308.2	.8033	.1832	.0008
308.2	.9017	.0892	.0008
308.2	.993	0	.0008
308.2	.0054	0	.0008
318.2	.0071	0	.0008
318.2	.0134	.0407	.0008
318.2	.0301	.0829	.0008
318.2	.0527	.1363	.0008
318.2	.0736	.182	.0008
318.2	.0899	.2423	.0008
318.2	.1179	.3312	.0008
318.2	.1648	.4492	.0008
318.2	.2022	.4995	.0008
318.2	.242	.5284	.0008
318.2	.2838	.5404	.0008
318.2	.3584	.5164	.0008
318.2	.4246	.4924	.0008
318.2	.4973	.4515	.0008
318.2	.5521	.4083	.0008
318.2	.6883	.2903	.0008
318.2	.7836	.1988	.0008
318.2	.8877	.0954	.0008
318.2	.9915	0	.0008
318.2	.0071	0	.0008

System: isopentyl methyl ketone + phosphoric acid + water; phases: Liquid mixture 2, Liquid mixture 1
Property: Mass fraction of phosphoric acid (Liquid mixture 2); method: Index of refraction calibration data
Property: Mass fraction of water (Liquid mixture 2); method: Index of refraction calibration data
Property: Mass fraction of water (Liquid mixture 1); method: Index of refraction calibration data
Property: Mass fraction of phosphoric acid (Liquid mixture 1); method: Index of refraction calibration data
Property: Mass fraction of isopentyl methyl ketone (Liquid mixture 1); method: Index of refraction calibration data
Temperature, K	Pressure, kPa	Mass fraction of isopentyl methyl ketone	Mass fraction of phosphoric acid	uncertainty	Mass fraction of water	uncertainty	Mass fraction of water	uncertainty	Mass fraction of phosphoric acid	uncertainty	Mass fraction of isopentyl methyl ketone	uncertainty
298.2	101.325	.974	.018	.001	.008	.001	.821	.001	.168	.001	.011	.001
298.2	101.325	.95	.037	.001	.013	.001	.715	.001	.268	.001	.017	.001
298.2	101.325	.932	.049	.001	.019	.001	.636	.001	.337	.001	.027	.001
298.2	101.325	.909	.066	.001	.025	.001	.585	.001	.381	.001	.034	.001
298.2	101.325	.877	.09	.001	.033	.001	.521	.001	.438	.001	.041	.001
298.2	101.325	.83	.127	.001	.043	.001	.467	.001	.481	.001	.052	.001
308.2	101.325	.976	.017	.001	.007	.001	.811	.001	.176	.001	.013	.001
308.2	101.325	.953	.036	.001	.011	.001	.707	.001	.273	.001	.02	.001
308.2	101.325	.935	.047	.001	.018	.001	.628	.001	.344	.001	.028	.001
308.2	101.325	.92	.058	.001	.022	.001	.581	.001	.388	.001	.031	.001
308.2	101.325	.89	.082	.001	.028	.001	.525	.001	.435	.001	.04	.001
308.2	101.325	.85	.114	.001	.036	.001	.476	.001	.473	.001	.051	.001
318.2	101.325	.972	.019	.001	.009	.001	.828	.001	.162	.001	.01	.001
318.2	101.325	.947	.039	.001	.014	.001	.716	.001	.266	.001	.018	.001
318.2	101.325	.932	.048	.001	.02	.001	.649	.001	.328	.001	.023	.001
318.2	101.325	.915	.061	.001	.024	.001	.573	.001	.392	.001	.035	.001
318.2	101.325	.878	.089	.001	.033	.001	.511	.001	.441	.001	.048	.001
318.2	101.325	.859	.105	.001	.036	.001	.483	.001	.462	.001	.055	.001
