Measured thermophysical data. Binary diffusion coefficients of phenolic compounds in subcritical water using a chromatographic peak broadening technique
Source: Fluid Phase Equilib., 2011, 10.1016/j.fluid.2010.12.003
Compound 1: 3,4-dihydroxybenzoic acid, C7H6O4, purity 98%
Compound 2: 3,4,5-trihydroxybenzoic acid, C7H6O5, purity 98%
Compound 3: cis-2-(3,4-dihydroxyphenyl)-3,4-dihydro-2H-1-benzopyran-3,5,7-triol, C15H14O6, purity 97%
Compound 4: catechin hydrate, C15H12O7, purity 97%
Compound 5: isoquercitrin, C21H20O12, purity 90%
Compound 6: 5,7-dihydroxy-2-(4-hydroxy-3-methoxyphenyl)-3-(((2S,3R,4S,5S,6R)-3,4,5-trihydroxy-6-(hydroxymethyl)tetrahydro-2H-pyran-2-yl)oxy)chromenylium chloride, C22H23ClO11, purity 95%
Compound 7: malvidin-3,5-diglucoside chloride, C29H35ClO17, purity 95%
Compound 8: water, H2O, purity 99.9%

System: 3,4-dihydroxybenzoic acid + water; phases: Fluid (supercritical or subcritical phases)
Fixed: Mole fraction of 3,4-dihydroxybenzoic acid = 0
Fixed: Pressure, kPa = 101
Property: Binary diffusion coefficient, m2/s (Fluid (supercritical or subcritical phases)); method: Taylor dispersion method
Temperature, K	Binary diffusion coefficient, m2/s	uncertainty
298	0.000000000246	.00000000001
312	0.00000000032	.00000000003
332	0.000000000384	.00000000002
352	0.000000000415	.00000000002
372	0.000000000512	.00000000004
392	0.000000000527	.00000000004

System: 3,4,5-trihydroxybenzoic acid + water; phases: Fluid (supercritical or subcritical phases)
Fixed: Mole fraction of 3,4,5-trihydroxybenzoic acid = 0
Fixed: Pressure, kPa = 101
Property: Binary diffusion coefficient, m2/s (Fluid (supercritical or subcritical phases)); method: Taylor dispersion method
Temperature, K	Binary diffusion coefficient, m2/s	uncertainty
298	0.00000000025	.00000000001
312	0.000000000287	.00000000001
332	0.00000000033	.00000000001
352	0.000000000407	.00000000003

System: cis-2-(3,4-dihydroxyphenyl)-3,4-dihydro-2H-1-benzopyran-3,5,7-triol + water; phases: Fluid (supercritical or subcritical phases)
Fixed: Mole fraction of cis-2-(3,4-dihydroxyphenyl)-3,4-dihydro-2H-1-benzopyran-3,5,7-triol = 0
Fixed: Pressure, kPa = 101
Property: Binary diffusion coefficient, m2/s (Fluid (supercritical or subcritical phases)); method: Taylor dispersion method
Temperature, K	Binary diffusion coefficient, m2/s	uncertainty
298	0.0000000000197	.000000000004
312	0.0000000000266	.000000000004
332	0.0000000000338	.000000000003
352	0.0000000000389	0
372	0.0000000000406	.000000000002
392	0.0000000000519	.000000000003

System: catechin hydrate + water; phases: Fluid (supercritical or subcritical phases)
Fixed: Mole fraction of catechin hydrate = 0
Fixed: Pressure, kPa = 101
Property: Binary diffusion coefficient, m2/s (Fluid (supercritical or subcritical phases)); method: Taylor dispersion method
Temperature, K	Binary diffusion coefficient, m2/s	uncertainty
298	0.000000000233	.00000000001
312	0.000000000307	.00000000004
332	0.000000000376	.00000000004
352	0.000000000405	.00000000003
372	0.000000000425	.00000000002
392	0.000000000478	.00000000002
413	0.00000000053	.00000000005

System: water + isoquercitrin; phases: Fluid (supercritical or subcritical phases)
Fixed: Mole fraction of isoquercitrin = 0
Fixed: Pressure, kPa = 101
Property: Binary diffusion coefficient, m2/s (Fluid (supercritical or subcritical phases)); method: Taylor dispersion method
Temperature, K	Binary diffusion coefficient, m2/s	uncertainty
298	0.000000000166	.00000000001
312	0.000000000219	.00000000002
332	0.000000000277	.00000000003
352	0.000000000307	.00000000001
372	0.000000000351	.00000000002

System: 5,7-dihydroxy-2-(4-hydroxy-3-methoxyphenyl)-3-(((2S,3R,4S,5S,6R)-3,4,5-trihydroxy-6-(hydroxymethyl)tetrahydro-2H-pyran-2-yl)oxy)chromenylium chloride + water; phases: Fluid (supercritical or subcritical phases)
Fixed: Mole fraction of 5,7-dihydroxy-2-(4-hydroxy-3-methoxyphenyl)-3-(((2S,3R,4S,5S,6R)-3,4,5-trihydroxy-6-(hydroxymethyl)tetrahydro-2H-pyran-2-yl)oxy)chromenylium chloride = 0
Fixed: Pressure, kPa = 101
Property: Binary diffusion coefficient, m2/s (Fluid (supercritical or subcritical phases)); method: Taylor dispersion method
Temperature, K	Binary diffusion coefficient, m2/s	uncertainty
298	0.000000000219	.00000000001
312	0.000000000267	.00000000001
332	0.000000000365	.00000000002
352	0.000000000452	.00000000002
372	0.000000000539	.00000000002
392	0.000000000618	.00000000002
413	0.000000000649	.00000000006

System: water + malvidin-3,5-diglucoside chloride; phases: Fluid (supercritical or subcritical phases)
Fixed: Mole fraction of malvidin-3,5-diglucoside chloride = 0
Fixed: Pressure, kPa = 101
Property: Binary diffusion coefficient, m2/s (Fluid (supercritical or subcritical phases)); method: Taylor dispersion method
Temperature, K	Binary diffusion coefficient, m2/s	uncertainty
298	0.000000000216	0
312	0.000000000271	.00000000001
332	0.00000000036	0
352	0.000000000441	.00000000001
372	0.000000000515	.00000000003
392	0.00000000053	.00000000005
413	0.000000000579	.00000000003
