Measured thermophysical data. Simultaneous solubility of carbon dioxide and hydrogen in the ionic liquid [hmim][Tf2N]: Experimental results and correlation
Source: Fluid Phase Equilib., 2011, 10.1016/j.fluid.2011.08.013
Compound 1: hydrogen, H2
Compound 2: carbon dioxide, CO2
Compound 3: 1-hexyl-3-methylimidazolium bis[(trifluoromethyl)sulfonyl]imide, C12H19F6N3O4S2, purity 99%

System: carbon dioxide + hydrogen + 1-hexyl-3-methylimidazolium bis[(trifluoromethyl)sulfonyl]imide; phases: Liquid, Gas
Property: Molality, mol/kg of carbon dioxide (Liquid); method: Synthetic
Temperature, K	Pressure, kPa	Molality, mol/kg of hydrogen	Molality, mol/kg of carbon dioxide	uncertainty
293.15	1.799	.01622	.4592	.0076
293.15	2.202	.01676	.9012	.008
293.15	2.714	.01741	1.5098	.0085
293.15	3.177	.0181	2.0293	.0093
293.15	4.019	.01907	3.0031	.0109
293.15	4.632	.01981	3.7695	.0125
293.15	2.966	.03329	.3471	.0075
293.15	3.556	.03457	1.0279	.0081
293.15	4.327	.03623	2.0104	.0093
293.15	4.762	.0373	2.6058	.0102
293.15	5.448	.03891	3.5062	.012
333.15	3.621	.03436	.7099	.008
333.15	4.056	.03494	.8957	.0079
333.15	4.978	.03598	1.2739	.0085
333.15	5.88	.03686	1.6994	.0091
333.15	7.233	.0382	2.4111	.0102
333.15	8.49	.03959	3.0704	.0115
333.15	5.214	.06869	.2842	.0077
333.15	6.167	.07027	.7425	.008
333.15	6.697	.07139	1.0321	.0083
333.15	7.625	.07322	1.518	.0088
333.15	9.148	.07636	2.3737	.0101
373.15	3.499	.03541	.4622	.008
373.15	4.231	.03584	.6717	.0082
373.15	5.771	.03675	1.0885	.0086
373.15	6.269	.03704	1.2102	.0087
373.15	6.823	.03736	1.3973	.0087
373.15	8.195	.03817	1.7701	.0094
373.15	4.77	.0705	.2409	.0055
373.15	5.378	.07091	.3856	.008
373.15	5.947	.0713	.5575	.0081
373.15	6.289	.07151	.6405	.0081
373.15	7.074	.07205	.8333	.0083
373.15	8.026	.07268	1.1045	.0086
