Measured thermophysical data. Phase equilibria of high pressure CO2 and deep eutectic solvents formed by quaternary ammonium salts and phenol
Source: Fluid Phase Equilib., 2016, 10.1016/j.fluid.2016.08.020
Compound 1: carbon dioxide, CO2, purity 99.995%
Compound 2: ethanol, C2H6O, purity 99.7%
Compound 3: choline chloride, C5H14ClNO, purity 98%
Compound 4: phenol, C6H6O, purity 99%
Compound 5: tetramethylammonium chloride, C4H12ClN, purity 98%
Compound 6: tetraethylammonium chloride, C8H20ClN, purity 98%

System: choline chloride + phenol + carbon dioxide; phases: Liquid, Gas
Property: Mole fraction of carbon dioxide (Liquid); method: gravimetric
Solvent: Mole fraction of phenol	Pressure, kPa	Temperature, K	Mole fraction of carbon dioxide	uncertainty
.333	1990	313.15	.088	
.333	3460	313.15	.1263	
.333	5010	313.15	.1601	
.333	6450	313.15	.1861	
.333	7800	313.15	.2144	
.333	8870	313.15	.2371	
.333	10170	313.15	.2509	
.333	12740	313.15	.2754	
.333	1710	323.15	.0705	
.333	2460	323.15	.09	
.333	4390	323.15	.1356	
.333	5410	323.15	.1543	
.333	7230	323.15	.1861	
.333	8580	323.15	.1997	
.333	10070	323.15	.212	
.333	11590	323.15	.2278	
.333	2820	333.15	.0771	
.333	3810	333.15	.1051	
.333	5610	333.15	.1355	
.333	7620	333.15	.1729	
.333	9440	333.15	.1941	
.333	10910	333.15	.2026	
.333	12210	333.15	.2152	
.333	13300	333.15	.2218	
.25	1910	313.15	.0861	
.25	3120	313.15	.1219	
.25	4660	313.15	.1607	
.25	6760	313.15	.2042	
.25	8250	313.15	.2301	
.25	9780	313.15	.2541	
.25	11820	313.15	.2738	
.2	2100	313.15	.0869	
.2	3660	313.15	.1371	
.2	5830	313.15	.1947	
.2	8000	313.15	.2322	
.2	9130	313.15	.2591	
.2	10080	313.15	.271	
.2	12170	313.15	.2927	

System: choline chloride + phenol + carbon dioxide; phases: Gas, Liquid
Property: Mole fraction of phenol (Gas); method: UV-vis spectrophotometry
Solvent: Mole fraction of phenol	Pressure, kPa	Temperature, K	Mole fraction of phenol	uncertainty
.333	2180	313.15	.0000214	
.333	3600	313.15	.0000364	
.333	5410	313.15	.0000806	
.333	6510	313.15	.000141	
.333	8360	313.15	.000435	
.333	9300	313.15	.000914	
.333	10700	313.15	.00332	
.333	12600	313.15	.00547	
.333	3210	323.15	.000099	
.333	4460	323.15	.000113	
.333	6290	323.15	.000166	
.333	7480	323.15	.000177	
.333	8880	323.15	.000395	
.333	10070	323.15	.000758	
.333	11350	323.15	.000879	
.333	12310	323.15	.001	
.333	3810	333.15	.000149	
.333	6310	333.15	.000214	
.333	8250	333.15	.000242	
.333	9120	333.15	.000334	
.333	10510	333.15	.000582	
.333	12220	333.15	.000721	
.333	12960	333.15	.000761	
.25	1910	313.15	.000174	
.25	2990	313.15	.000181	
.25	4660	313.15	.000212	
.25	6760	313.15	.000288	
.25	8250	313.15	.000128	
.25	9820	313.15	.000392	
.25	11500	313.15	.000532	
.2	2120	313.15	.000162	
.2	3440	313.15	.000172	
.2	5830	313.15	.000324	
.2	8000	313.15	.00157	
.2	9130	313.15	.00504	
.2	10140	313.15	.0059	
.2	12050	313.15	.00672	

System: tetramethylammonium chloride + phenol + carbon dioxide; phases: Liquid, Gas
Fixed: Solvent: Mole fraction of tetramethylammonium chloride = .25
Property: Mole fraction of carbon dioxide (Liquid); method: gravimetric
Temperature, K	Pressure, kPa	Mole fraction of carbon dioxide	uncertainty
313.15	2360	.0945	
313.15	4470	.1389	
313.15	6500	.1849	
313.15	8000	.2176	
313.15	8920	.233	
313.15	10650	.2484	
313.15	12170	.2623	

System: tetramethylammonium chloride + phenol + carbon dioxide; phases: Gas, Liquid
Fixed: Temperature, K = 313.15
Fixed: Solvent: Mole fraction of phenol = .25
Property: Mole fraction of phenol (Gas); method: uv-vis spectrophotometry
Pressure, kPa	Mole fraction of phenol	uncertainty
2360	.000048	
4470	.000067	
6500	.000183	
8000	.000575	
8920	.00137	
10650	.00332	
11750	.00382	

System: tetraethylammonium chloride + phenol + carbon dioxide; phases: Liquid, Gas
Fixed: Solvent: Mole fraction of tetraethylammonium chloride = .25
Property: Mole fraction of carbon dioxide (Liquid); method: gravimetric
Temperature, K	Pressure, kPa	Mole fraction of carbon dioxide	uncertainty
313.15	2120	.0746	
313.15	3410	.1144	
313.15	5290	.1509	
313.15	7260	.1916	
313.15	8240	.2117	
313.15	9430	.2212	
313.15	11170	.233	

System: tetraethylammonium chloride + phenol + carbon dioxide; phases: Gas, Liquid
Fixed: Temperature, K = 313.15
Fixed: Solvent: Mole fraction of phenol = .25
Property: Mole fraction of phenol (Gas); method: uv-vis spectrophotometry
Pressure, kPa	Mole fraction of phenol	uncertainty
3400	.000025	
4770	.000036	
5290	.000023	
7260	.000115	
8240	.00026	
9480	.000725	
11160	.00114	

System: choline chloride + phenol; phases: Liquid
Fixed: Pressure, kPa = 101
Property: Mass density, kg/m3 (Liquid); method: Vibrating tube method
Temperature, K	Mole fraction of choline chloride	Mass density, kg/m3	uncertainty
303.15	.333	1092.95	
303.15	.25	1089.59	
303.15	.2	1085.98	
313.15	.333	1086.96	
313.15	.25	1083.34	
313.15	.2	1079.44	
323.15	.333	1081.03	
323.15	.25	1077.13	
323.15	.2	1072.92	

System: choline chloride + phenol; phases: Liquid
Fixed: Pressure, kPa = 101
Property: Viscosity, Pa*s (Liquid); method: Falling or rolling sphere viscometry
Temperature, K	Mole fraction of choline chloride	Viscosity, Pa*s	uncertainty
303.15	.333	.07503	
303.15	.25	.0412	
303.15	.2	.03655	
313.15	.333	.04641	
313.15	.25	.02684	
313.15	.2	.02357	
323.15	.333	.03068	
323.15	.25	.01862	
323.15	.2	.01621	

System: choline chloride + phenol; phases: Liquid, Crystal
Fixed: Pressure, kPa = 101.3
Property: Solid-liquid equilibrium temperature, K (Liquid); method: DSC/DTA
Mole fraction of choline chloride	Solid-liquid equilibrium temperature, K	uncertainty
.25	253	
.2	260	

System: tetramethylammonium chloride + phenol; phases: Liquid
Fixed: Pressure, kPa = 101
Property: Mass density, kg/m3 (Liquid); method: Vibrating tube method
Temperature, K	Mole fraction of tetramethylammonium chloride	Mass density, kg/m3	uncertainty
303.15	.25	1064.12	
303.15	.2	1062.06	
313.15	.25	1061.48	
313.15	.2	1055.58	
323.15	.25	1059.64	
323.15	.2	1049.1	

System: tetramethylammonium chloride + phenol; phases: Liquid
Fixed: Pressure, kPa = 101
Property: Viscosity, Pa*s (Liquid); method: Falling or rolling sphere viscometry
Temperature, K	Mole fraction of tetramethylammonium chloride	Viscosity, Pa*s	uncertainty
303.15	.25	.03691	
303.15	.2	.02335	
313.15	.25	.02375	
313.15	.2	.01688	
323.15	.25	.01631	
323.15	.2	.0119	

System: tetramethylammonium chloride + phenol; phases: Liquid, Crystal
Fixed: Pressure, kPa = 101.3
Property: Solid-liquid equilibrium temperature, K (Liquid); method: DSC/DTA
Mole fraction of tetramethylammonium chloride	Solid-liquid equilibrium temperature, K	uncertainty
.25	258	

System: tetraethylammonium chloride + phenol; phases: Liquid
Fixed: Pressure, kPa = 101
Property: Mass density, kg/m3 (Liquid); method: Vibrating tube method
Temperature, K	Mole fraction of tetraethylammonium chloride	Mass density, kg/m3	uncertainty
303.15	.333	1050.4	
303.15	.25	1050.21	
303.15	.2	1053.12	
313.15	.333	1039.76	
313.15	.25	1043.92	
313.15	.2	1046.65	
323.15	.333	1033.73	
323.15	.25	1037.66	
323.15	.2	1040.2	

System: tetraethylammonium chloride + phenol; phases: Liquid
Fixed: Pressure, kPa = 101
Property: Viscosity, Pa*s (Liquid); method: Falling or rolling sphere viscometry
Temperature, K	Mole fraction of tetraethylammonium chloride	Viscosity, Pa*s	uncertainty
303.15	.333	.07211	
303.15	.25	.0386	
303.15	.2	.03406	
313.15	.333	.04299	
313.15	.25	.02468	
313.15	.2	.02128	
323.15	.333	.0278	
323.15	.25	.01686	
323.15	.2	.01434	

System: tetraethylammonium chloride + phenol; phases: Liquid, Crystal
Fixed: Pressure, kPa = 101.3
Property: Solid-liquid equilibrium temperature, K (Liquid); method: DSC/DTA
Mole fraction of tetraethylammonium chloride	Solid-liquid equilibrium temperature, K	uncertainty
.333	263	
