Measured thermophysical data. Effect of bivalent cation inorganic salts on isobaric vapor-liquidequilibrium of methyl acetate - methanol system
Source: Fluid Phase Equilib., 2014, 10.1016/j.fluid.2014.07.005
Compound 1: methyl acetate, C3H6O2, purity 99.9%
Compound 2: methanol, CH4O, purity 99.9%
Compound 3: magnesium nitrate, MgN2O6, purity 98%
Compound 4: calcium nitrate, CaN2O6, purity 98%
Compound 5: magnesium chloride, Cl2Mg, purity 98%
Compound 6: zinc nitrate, N2O6Zn, purity 99%

System: methanol + methyl acetate + zinc nitrate; phases: Liquid, Gas
Fixed: Pressure, kPa = 101
Property: Boiling temperature at pressure P, K (Liquid); method: Ebulliometric method (Recirculating still)
Mole fraction of methyl acetate	Solvent: Mass fraction of zinc nitrate	Boiling temperature at pressure P, K	uncertainty
.038	.02	336.15	.100000000000023
.0787	.02	333.95	.100000000000023
.1732	.02	332.05	.100000000000023
.2846	.02	330.85	.100000000000023
.3989	.02	330.05	.100000000000023
.5214	.02	329.15	.100000000000023
.617	.02	328.55	.100000000000023
.7509	.02	327.85	.100000000000023
.8838	.02	328.25	.100000000000023
.0378	.05	336.65	.100000000000023
.0783	.05	334.85	.100000000000023
.1725	.05	332.75	.100000000000023
.2836	.05	331.45	.100000000000023
.3977	.05	330.75	.100000000000023
.5201	.05	329.75	.100000000000023
.6158	.05	329.25	.100000000000023
.7499	.05	328.45	.100000000000023
.8832	.05	328.85	.100000000000023
.0377	.07	337.05	.100000000000023
.0781	.07	335.35	.100000000000023
.172	.07	333.25	.100000000000023
.2829	.07	332.05	.100000000000023
.3969	.07	331.25	.100000000000023
.5193	.07	330.55	.100000000000023
.615	.07	329.95	.100000000000023
.7493	.07	328.95	.100000000000023
.8829	.07	329.25	.100000000000023
.0375	.1	337.55	.100000000000023
.0777	.1	336.05	.100000000000023
.1713	.1	334.55	.100000000000023
.2819	.1	332.65	.100000000000023
.3957	.1	331.95	.100000000000023
.518	.1	331.15	.100000000000023
.6138	.1	330.55	.100000000000023
.7484	.1	329.45	.100000000000023
.8824	.1	329.75	.100000000000023

System: methanol + methyl acetate + calcium nitrate; phases: Liquid, Gas
Fixed: Pressure, kPa = 101
Property: Boiling temperature at pressure P, K (Liquid); method: Ebulliometric method (Recirculating still)
Mole fraction of methyl acetate	Solvent: Mass fraction of calcium nitrate	Boiling temperature at pressure P, K	uncertainty
.038	.02	336.05	.100000000000023
.0786	.02	333.95	.100000000000023
.1731	.02	331.65	.100000000000023
.2845	.02	330.75	.100000000000023
.3988	.02	329.85	.100000000000023
.5212	.02	328.65	.100000000000023
.6169	.02	327.95	.100000000000023
.7508	.02	327.45	.100000000000023
.8837	.02	327.95	.100000000000023
.0377	.05	336.65	.100000000000023
.0782	.05	334.55	.100000000000023
.1723	.05	332.15	.100000000000023
.2833	.05	331.55	.100000000000023
.3974	.05	330.35	.100000000000023
.5198	.05	329.55	.100000000000023
.6155	.05	328.75	.100000000000023
.7497	.05	327.85	.100000000000023
.8831	.05	328.45	.100000000000023
.0376	.07	337.25	.100000000000023
.0779	.07	335.05	.100000000000023
.1718	.07	332.55	.100000000000023
.2825	.07	332.05	.100000000000023
.3964	.07	330.95	.100000000000023
.5188	.07	330.05	.100000000000023
.6146	.07	329.45	.100000000000023
.749	.07	328.35	.100000000000023
.8827	.07	328.85	.100000000000023
.0374	.1	337.75	.100000000000023
.0775	.1	335.85	.100000000000023
.1709	.1	333.05	.100000000000023
.2814	.1	332.35	.100000000000023
.3951	.1	331.55	.100000000000023
.5174	.1	330.45	.100000000000023
.6132	.1	330.05	.100000000000023
.7479	.1	328.95	.100000000000023
.8821	.1	329.25	.100000000000023

System: methanol + methyl acetate + magnesium nitrate; phases: Liquid, Gas
Fixed: Pressure, kPa = 101
Property: Boiling temperature at pressure P, K (Liquid); method: Ebulliometric method (Recirculating still)
Mole fraction of methyl acetate	Solvent: Mass fraction of magnesium nitrate	Boiling temperature at pressure P, K	uncertainty
.0379	.02	335.85	.100000000000023
.0786	.02	333.75	.100000000000023
.1731	.02	331.95	.100000000000023
.2844	.02	330.55	.100000000000023
.3987	.02	329.45	.100000000000023
.5211	.02	328.55	.100000000000023
.6168	.02	327.85	.100000000000023
.7507	.02	327.55	.100000000000023
.8837	.02	327.85	.100000000000023
.0377	.05	336.15	.100000000000023
.0781	.05	334.25	.100000000000023
.1722	.05	332.65	.100000000000023
.2831	.05	331.35	.100000000000023
.3971	.05	330.55	.100000000000023
.5195	.05	329.95	.100000000000023
.6153	.05	328.55	.100000000000023
.7495	.05	328.15	.100000000000023
.883	.05	328.75	.100000000000023
.0376	.07	336.65	.100000000000023
.0778	.07	334.95	.100000000000023
.1716	.07	333.55	.100000000000023
.2822	.07	332.25	.100000000000023
.3961	.07	331.45	.100000000000023
.5185	.07	330.65	.100000000000023
.6142	.07	329.15	.100000000000023
.7487	.07	328.85	.100000000000023
.8826	.07	329.35	.100000000000023
.0373	.1	336.85	.100000000000023
.0774	.1	335.85	.100000000000023
.1707	.1	334.15	.100000000000023
.281	.1	333.45	.100000000000023
.3946	.1	333.15	.100000000000023
.5169	.1	331.75	.100000000000023
.6127	.1	330.05	.100000000000023
.7475	.1	329.55	.100000000000023
.8819	.1	329.85	.100000000000023

System: methanol + methyl acetate + magnesium chloride; phases: Liquid, Gas
Fixed: Pressure, kPa = 101
Property: Boiling temperature at pressure P, K (Liquid); method: Ebulliometric method (Recirculating still)
Mole fraction of methyl acetate	Solvent: Mass fraction of magnesium chloride	Boiling temperature at pressure P, K	uncertainty
.0379	.02	336.15	.100000000000023
.0784	.02	334.25	.100000000000023
.1727	.02	332.05	.100000000000023
.2839	.02	330.45	.100000000000023
.3981	.02	329.55	.100000000000023
.5205	.02	328.95	.100000000000023
.6162	.02	328.35	.100000000000023
.7502	.02	327.95	.100000000000023
.8834	.02	328.25	.100000000000023
.0375	.05	336.95	.100000000000023
.0777	.05	334.65	.100000000000023
.1713	.05	332.45	.100000000000023
.2819	.05	330.95	.100000000000023
.3957	.05	330.15	.100000000000023
.518	.05	329.55	.100000000000023
.6139	.05	329.15	.100000000000023
.7484	.05	328.65	.100000000000023
.8824	.05	328.95	.100000000000023
.0373	.07	337.15	.100000000000023
.0772	.07	335.25	.100000000000023
.1704	.07	334.25	.100000000000023
.2806	.07	331.35	.100000000000023
.3941	.07	331.05	.100000000000023
.5164	.07	330.65	.100000000000023
.6123	.07	330.25	.100000000000023
.7471	.07	329.15	.100000000000023
.8817	.07	329.45	.100000000000023
.0369	.1	337.55	.100000000000023
.0765	.1	335.75	.100000000000023
.169	.1	334.65	.100000000000023
.2786	.1	333.45	.100000000000023
.3918	.1	331.85	.100000000000023
.5139	.1	331.15	.100000000000023
.61	.1	330.65	.100000000000023
.7453	.1	329.55	.100000000000023
.8807	.1	330.05	.100000000000023

System: methanol + zinc nitrate; phases: Liquid
Fixed: Pressure, kPa = 101
Fixed: Temperature, K = 298.15
Property: Mass density, kg/m3 (Liquid); method: Rudolph densimeter
Molality, mol/kg of zinc nitrate	Mass density, kg/m3	uncertainty
.0053	787.73	.01
.0106	788.43	.01
.0159	789.11	.01
.0212	789.81	.01
.0265	790.47	.01
.0292	790.79	.01
.0319	791.13	.01
.0346	791.46	.01
.0372	791.79	.01
.0399	792.11	.01
.0426	792.44	.01
.0453	792.76	.01
.048	793.07	.01
.0507	793.39	.01
.0533	793.72	.01
.0804	796.87	.01

System: methanol + magnesium nitrate; phases: Liquid
Fixed: Pressure, kPa = 101
Fixed: Temperature, K = 298.15
Property: Mass density, kg/m3 (Liquid); method: Rudolph densimeter
Molality, mol/kg of magnesium nitrate	Mass density, kg/m3	uncertainty
.0067	787.75	.01
.0135	788.44	.01
.0203	789.09	.01
.0271	789.77	.01
.0339	790.43	.01
.0373	790.75	.01
.0407	791.07	.01
.0441	791.39	.01
.0475	791.72	.01
.051	792.03	.01
.0544	792.33	.01
.0578	792.66	.01
.0612	792.95	.01
.0647	793.26	.01
.0681	793.56	.01

System: methanol + magnesium chloride; phases: Liquid
Fixed: Pressure, kPa = 101
Fixed: Temperature, K = 298.15
Property: Mass density, kg/m3 (Liquid); method: Rudolph densimeter
Molality, mol/kg of magnesium chloride	Mass density, kg/m3	uncertainty
.0105	788.19	.01
.021	789.37	.01
.0316	790.72	.01
.0422	791.97	.01
.0528	793.43	.01
.0581	794.28	.01
.0634	795.32	.01
.0687	796.28	.01
.074	796.94	.01
.0794	797.82	.01
.0847	798.59	.01
.09	799.4	.01
.0954	800.16	.01
