Measured thermophysical data. Isobaric vapor-liquid equilibrium for methanol + methyl ethyl ketone + bis(trifluoromethylsulfonyl)imide-based ionic liquids at 101.3 kPa
Source: Fluid Phase Equilib., 2016, 10.1016/j.fluid.2016.06.048
Compound 1: methanol, CH4O, purity 99.5%
Compound 2: methyl ethyl ketone, C4H8O, purity 99.5%
Compound 3: 1-butyl-3-methylimidazolium bis(trifluoromethylsulfonyl)imide [BMIM][NTf2], C10H15F6N3O4S2, purity 99%
Compound 4: 1-hexyl-3-methylimidazolium bis[(trifluoromethyl)sulfonyl]imide [HMIM][NTf2], C12H19F6N3O4S2, purity 99%

System: methanol + methyl ethyl ketone; phases: Liquid, Gas
Fixed: Pressure, kPa = 101.3
Property: Boiling temperature at pressure P, K (Liquid); method: Ebulliometric method (Recirculating still)
Mole fraction of methanol	Boiling temperature at pressure P, K	uncertainty
0	352.8	
.039	349.8	
.079	347.7	
.121	345.7	
.176	344.1	
.222	342.7	
.28	341.7	
.326	340.8	
.393	340	
.437	339.6	
.486	339	
.548	338.6	
.599	338.2	
.641	338	
.688	337.7	
.74	337.5	
.791	337.4	
.852	337.4	
.9	337.4	
.956	337.6	
1	337.9	

System: methanol + methyl ethyl ketone; phases: Gas, Liquid
Fixed: Pressure, kPa = 101.3
Property: Mole fraction of methanol (Gas); method: Chromatography
Mole fraction of methanol	Mole fraction of methanol	uncertainty
0	0	
.039	.114	
.079	.204	
.121	.278	
.176	.361	
.222	.416	
.28	.475	
.326	.512	
.393	.555	
.437	.586	
.486	.621	
.548	.66	
.599	.689	
.641	.713	
.688	.738	
.74	.772	
.791	.802	
.852	.849	
.9	.886	
.956	.946	
1	1	

System: methanol + methyl ethyl ketone + 1-butyl-3-methylimidazolium bis(trifluoromethylsulfonyl)imide [BMIM][NTf2]; phases: Liquid, Gas
Fixed: Pressure, kPa = 101.3
Property: Boiling temperature at pressure P, K (Liquid); method: Ebulliometric method (Recirculating still)
Solvent: Mole fraction of methanol	Mole fraction of 1-butyl-3-methylimidazolium bis(trifluoromethylsulfonyl)imide [BMIM][NTf2]	Boiling temperature at pressure P, K	uncertainty
.081	.052	349.9	
.162	.053	346.5	
.255	.052	343.9	
.359	.053	342	
.463	.054	340.6	
.578	.054	339.6	
.685	.053	339.2	
.792	.054	338.9	
.899	.052	338.8	
.952	.054	338.9	
.072	.108	352.9	
.155	.109	349.3	
.238	.109	346.7	
.348	.11	344.5	
.449	.108	342.9	
.562	.111	341.8	
.669	.11	341.3	
.787	.111	340.6	
.895	.113	340.4	
.951	.111	340.6	
.07	.171	355.8	
.147	.172	352.4	
.233	.169	349.5	
.335	.172	347.6	
.431	.173	346	
.549	.172	344.7	
.66	.171	343.9	
.783	.174	342.9	
.891	.175	342.5	
.946	.174	342.3	

System: methanol + methyl ethyl ketone + 1-butyl-3-methylimidazolium bis(trifluoromethylsulfonyl)imide [BMIM][NTf2]; phases: Gas, Liquid
Fixed: Pressure, kPa = 101.3
Property: Mole fraction of methanol (Gas); method: Chromatography
Solvent: Mole fraction of methanol	Mole fraction of 1-butyl-3-methylimidazolium bis(trifluoromethylsulfonyl)imide [BMIM][NTf2]	Mole fraction of methanol	uncertainty
.081	.052	.201	
.162	.053	.34	
.255	.052	.458	
.359	.053	.553	
.463	.054	.625	
.578	.054	.696	
.685	.053	.762	
.792	.054	.837	
.899	.052	.915	
.952	.054	.958	
.072	.108	.19	
.155	.109	.336	
.238	.109	.441	
.348	.11	.557	
.449	.108	.634	
.562	.111	.709	
.669	.11	.774	
.787	.111	.854	
.895	.113	.927	
.951	.111	.966	
.07	.171	.191	
.147	.172	.33	
.233	.169	.446	
.335	.172	.555	
.431	.173	.637	
.549	.172	.724	
.66	.171	.791	
.783	.174	.867	
.891	.175	.933	
.946	.174	.967	

System: methanol + methyl ethyl ketone + 1-hexyl-3-methylimidazolium bis[(trifluoromethyl)sulfonyl]imide [HMIM][NTf2]; phases: Liquid, Gas
Fixed: Pressure, kPa = 101.3
Property: Boiling temperature at pressure P, K (Liquid); method: Ebulliometric method (Recirculating still)
Solvent: Mole fraction of methanol	Mole fraction of 1-hexyl-3-methylimidazolium bis[(trifluoromethyl)sulfonyl]imide [HMIM][NTf2]	Boiling temperature at pressure P, K	uncertainty
.071	.052	350.1	
.159	.052	347.1	
.255	.053	344.3	
.363	.053	342.3	
.474	.052	340.9	
.581	.053	340.1	
.685	.054	339.5	
.803	.054	339.1	
.903	.054	339	
.95	.054	339	
.072	.109	353.1	
.156	.107	349.8	
.236	.11	347.3	
.336	.109	345.1	
.466	.108	343.3	
.563	.11	342.3	
.669	.111	341.5	
.779	.111	341	
.888	.112	340.8	
.945	.112	340.6	
.058	.169	357.7	
.147	.169	353.8	
.225	.17	351.1	
.308	.172	349.1	
.434	.171	347.2	
.544	.17	345.9	
.645	.171	345.2	
.768	.174	344.3	
.884	.173	343.9	
.937	.174	343.7	

System: methanol + methyl ethyl ketone + 1-hexyl-3-methylimidazolium bis[(trifluoromethyl)sulfonyl]imide [HMIM][NTf2]; phases: Gas, Liquid
Fixed: Pressure, kPa = 101.3
Property: Mole fraction of methanol (Gas); method: Chromatography
Solvent: Mole fraction of methanol	Mole fraction of 1-hexyl-3-methylimidazolium bis[(trifluoromethyl)sulfonyl]imide [HMIM][NTf2]	Mole fraction of methanol	uncertainty
.071	.052	.182	
.159	.052	.336	
.255	.053	.455	
.363	.053	.562	
.474	.052	.638	
.581	.053	.699	
.685	.054	.76	
.803	.054	.84	
.903	.054	.918	
.95	.054	.957	
.072	.109	.187	
.156	.107	.339	
.236	.11	.449	
.336	.109	.557	
.466	.108	.655	
.563	.11	.718	
.669	.111	.785	
.779	.111	.852	
.888	.112	.922	
.945	.112	.962	
.058	.169	.165	
.147	.169	.347	
.225	.17	.456	
.308	.172	.547	
.434	.171	.652	
.544	.17	.73	
.645	.171	.796	
.768	.174	.866	
.884	.173	.935	
.937	.174	.965	
