Measured thermophysical data. Liquid-liquid equilibrium data for water + formic acid + solvent (butyl acetate, ethyl acetate, and isoamyl alcohol) at T = 291.15 K
Source: Fluid Phase Equilib., 2016, 10.1016/j.fluid.2016.01.045
Compound 1: formic acid, CH2O2
Compound 2: butyl acetate, C6H12O2
Compound 3: ethyl acetate, C4H8O2
Compound 4: isoamyl alcohol, C5H12O
Compound 5: water, H2O, purity 99.8%

System: formic acid + butyl acetate + water; phases: Liquid mixture 1, Liquid mixture 2
Fixed: Temperature, K = 291.15
Fixed: Pressure, kPa = 101.3
Property: Mass fraction of water (Liquid mixture 1); method: Titration method
Mass fraction of formic acid	Mass fraction of water	uncertainty
.0114	.9879	
.0939	.9002	
.1731	.8174	
.2252	.7575	
.3679	.6069	
.3986	.5804	
.4338	.5348	
.4669	.4985	
.3941	.1902	
.3861	.1866	
.3679	.1697	
.3506	.16	
.3243	.1405	
.2916	.1259	
.1595	.0631	
.0873	.0377	
.0107	.0148	

System: formic acid + butyl acetate + water; phases: Liquid mixture 1, Liquid mixture 2
Property: Mass fraction of water (Liquid mixture 1); method: Index of refraction calibration data
Property: Mass fraction of formic acid (Liquid mixture 2); method: Index of refraction calibration data
Property: Mass fraction of water (Liquid mixture 2); method: Index of refraction calibration data
Temperature, K	Pressure, kPa	Mass fraction of formic acid	Mass fraction of water	uncertainty	Mass fraction of formic acid	uncertainty	Mass fraction of water	uncertainty
291.15	101.3	.0301	.9678	.0001	.0108	.0001	.0148	.0001
291.15	101.3	.1437	.8482	.0001	.0485	.0001	.0258	.0001
291.15	101.3	.1844	.805	.0001	.068	.0001	.0319	.0001
291.15	101.3	.2832	.6962	.0001	.0869	.0001	.0376	.0001
291.15	101.3	.3414	.635	.0001	.1418	.0001	.0567	.0001
291.15	101.3	.3949	.5808	.0001	.1759	.0001	.0707	.0001

System: formic acid + ethyl acetate + water; phases: Liquid mixture 1, Liquid mixture 2
Fixed: Temperature, K = 291.15
Fixed: Pressure, kPa = 101.3
Property: Mass fraction of water (Liquid mixture 1); method: Titration method
Mass fraction of formic acid	Mass fraction of water	uncertainty
.0163	.9107	
.0822	.8243	
.1404	.7406	
.1942	.6423	
.2127	.5615	
.2152	.5452	
.2174	.5103	
.2174	.4737	
.2149	.4283	
.2101	.3693	
.1806	.2229	
.1451	.1504	
.0913	.0926	
.0215	.0378	

System: formic acid + ethyl acetate + water; phases: Liquid mixture 1, Liquid mixture 2
Property: Mass fraction of formic acid (Liquid mixture 1); method: Index of refraction calibration data
Property: Mass fraction of water (Liquid mixture 2); method: Index of refraction calibration data
Property: Mass fraction of formic acid (Liquid mixture 2); method: Index of refraction calibration data
Temperature, K	Pressure, kPa	Mass fraction of water	Mass fraction of formic acid	uncertainty	Mass fraction of water	uncertainty	Mass fraction of formic acid	uncertainty
291.15	101.3	.8888	.0329	.0001	.0378	.0001	.0215	.0001
291.15	101.3	.8477	.0642	.0001	.0504	.0001	.0385	.0001
291.15	101.3	.7942	.1032	.0001	.0625	.0001	.0532	.0001
291.15	101.3	.7205	.1516	.0001	.0875	.0001	.0844	.0001

System: formic acid + isoamyl alcohol + water; phases: Liquid mixture 1, Liquid mixture 2
Fixed: Temperature, K = 291.15
Fixed: Pressure, kPa = 101.3
Property: Mass fraction of water (Liquid mixture 1); method: Titration method
Mass fraction of formic acid	Mass fraction of water	uncertainty
.0148	.0823	
.0412	.1036	
.0791	.1171	
.1424	.1307	
.1992	.1498	
.2327	.1659	
.2719	.1877	
.297	.2086	
.3196	.2305	
.3484	.2611	
.4182	.465	
.4063	.5138	
.3577	.5937	
.3172	.6381	
.2213	.74	
.0837	.8838	
.9744	.0108	

System: formic acid + isoamyl alcohol + water; phases: Liquid mixture 1, Liquid mixture 2
Property: Mass fraction of water (Liquid mixture 1); method: Index of refraction calibration data
Property: Mass fraction of formic acid (Liquid mixture 2); method: Index of refraction calibration data
Property: Mass fraction of water (Liquid mixture 2); method: Index of refraction calibration data
Temperature, K	Pressure, kPa	Mass fraction of formic acid	Mass fraction of water	uncertainty	Mass fraction of formic acid	uncertainty	Mass fraction of water	uncertainty
291.15	101.3	.0208	.9428	.0001	.0281	.0001	.0927	.0001
291.15	101.3	.0801	.8863	.0001	.0791	.0001	.1171	.0001
291.15	101.3	.1219	.8454	.0001	.0981	.0001	.1209	.0001
291.15	101.3	.164	.8031	.0001	.1378	.0001	.1297	.0001
291.15	101.3	.2217	.7399	.0001	.1501	.0001	.1334	.0001
291.15	101.3	.2476	.7093	.0001	.1766	.0001	.1421	.0001
