Measured thermophysical data. Effect of simple electrolytes on the thermodynamic properties of room temperature ionic liquids in aqueous solutions
Source: Fluid Phase Equilib., 2010, 10.1016/j.fluid.2010.08.004
Compound 1: 1-heptyl-3-methylimidazolium bromide, C11H21BrN2, purity 98%
Compound 2: water, H2O
Compound 3: sodium dihydrogen citrate, C6H7NaO7
Compound 4: disodium hydrogen citrate, C6H6Na2O7
Compound 5: 3-carboxy-3-hydroxy-pentan-1,5-dioic acid trisodium salt, C6H5Na3O7

System: water + 1-heptyl-3-methylimidazolium bromide; phases: Liquid
Fixed: Pressure, kPa = 101.3
Property: Mass density, kg/m3 (Liquid); method: Vibrating tube method
Temperature, K	Molality, mol/kg of 1-heptyl-3-methylimidazolium bromide	Mass density, kg/m3	uncertainty
288.15	0	999.099	.003
288.15	.0096	999.568	.003
288.15	.0113	999.656	.003
288.15	.0151	999.839	.003
288.15	.0226	1000.202	.003
288.15	.0306	1000.587	.003
288.15	.0384	1000.963	.003
288.15	.0571	1001.854	.003
288.15	.0778	1002.84	.003
288.15	.097	1003.743	.003
288.15	.1158	1004.621	.003
288.15	.1383	1005.67	.003
288.15	.1566	1006.514	.003
288.15	.174	1007.317	.003
293.15	0	998.203	.003
293.15	.0096	998.662	.003
293.15	.0113	998.746	.003
293.15	.0151	998.926	.003
293.15	.0226	999.279	.003
293.15	.0306	999.656	.003
293.15	.0384	1000.026	.003
293.15	.0571	1000.898	.003
293.15	.0778	1001.861	.003
293.15	.097	1002.744	.003
293.15	.1158	1003.602	.003
293.15	.1383	1004.629	.003
293.15	.1566	1005.452	.003
293.15	.174	1006.238	.003
298.15	0	997.043	.003
298.15	.0096	997.491	.003
298.15	.0113	997.574	.003
298.15	.0151	997.75	.003
298.15	.0226	998.097	.003
298.15	.0306	998.464	.003
298.15	.0384	998.827	.003
298.15	.0571	999.682	.003
298.15	.0778	1000.625	.003
298.15	.097	1001.49	.003
298.15	.1158	1002.331	.003
298.15	.1383	1003.335	.003
298.15	.1566	1004.14	.003
298.15	.174	1004.91	.003
303.15	0	995.645	.003
303.15	.0096	996.083	.003
303.15	.0113	996.165	.003
303.15	.0151	996.337	.003
303.15	.0226	996.677	.003
303.15	.0306	997.04	.003
303.15	.0384	997.395	.003
303.15	.0571	998.23	.003
303.15	.0778	999.158	.003
303.15	.097	1000.006	.003
303.15	.1158	1000.83	.003
303.15	.1383	1001.812	.003
303.15	.1566	1002.602	.003
303.15	.174	1003.354	.003
308.15	0	994.029	.003
308.15	.0096	994.457	.003
308.15	.0113	994.539	.003
308.15	.0151	994.708	.003
308.15	.0226	995.043	.003
308.15	.0306	995.398	.003
308.15	.0384	995.747	.003
308.15	.0571	996.569	.003
308.15	.0778	997.477	.003
308.15	.097	998.309	.003
308.15	.1158	999.119	.003
308.15	.1383	1000.082	.003
308.15	.1566	1000.857	.003
308.15	.174	1001.595	.003

System: water + 1-heptyl-3-methylimidazolium bromide; phases: Liquid
Fixed: Pressure, kPa = 101.3
Property: Speed of sound, m/s (Liquid); method: Single path-length method
Temperature, K	Molality, mol/kg of 1-heptyl-3-methylimidazolium bromide	Speed of sound, m/s	uncertainty
288.15	0	1466.25	.2
288.15	.0096	1468.2	.2
288.15	.0113	1468.45	.2
288.15	.0151	1469.12	.2
288.15	.0226	1470.36	.2
288.15	.0306	1471.78	.2
288.15	.0384	1472.94	.2
288.15	.0571	1476.06	.2
288.15	.0778	1479.31	.2
288.15	.097	1482.27	.2
288.15	.1158	1485.23	.2
288.15	.1383	1488.7	.2
288.15	.1566	1491.47	.2
288.15	.174	1494	.2
293.15	0	1482.66	.2
293.15	.0096	1484.15	.2
293.15	.0113	1484.4	.2
293.15	.0151	1485.01	.2
293.15	.0226	1486.14	.2
293.15	.0306	1487.33	.2
293.15	.0384	1488.52	.2
293.15	.0571	1491.21	.2
293.15	.0778	1494.29	.2
293.15	.097	1497.03	.2
293.15	.1158	1499.7	.2
293.15	.1383	1502.82	.2
293.15	.1566	1505.3	.2
293.15	.174	1507.61	.2
298.15	0	1497	.2
298.15	.0096	1498.3	.2
298.15	.0113	1498.5	.2
298.15	.0151	1499.05	.2
298.15	.0226	1500.09	.2
298.15	.0306	1501.16	.2
298.15	.0384	1502.24	.2
298.15	.0571	1504.66	.2
298.15	.0778	1507.45	.2
298.15	.097	1509.94	.2
298.15	.1158	1512.34	.2
298.15	.1383	1515.18	.2
298.15	.1566	1517.42	.2
298.15	.174	1519.52	.2
303.15	0	1509.44	.2
303.15	.0096	1510.53	.2
303.15	.0113	1510.75	.2
303.15	.0151	1511.24	.2
303.15	.0226	1512.16	.2
303.15	.0306	1513.14	.2
303.15	.0384	1514.12	.2
303.15	.0571	1516.34	.2
303.15	.0778	1518.86	.2
303.15	.097	1521.11	.2
303.15	.1158	1523.3	.2
303.15	.1383	1525.84	.2
303.15	.1566	1527.87	.2
303.15	.174	1529.75	.2
308.15	0	1520.12	.2
308.15	.0096	1521.08	.2
308.15	.0113	1521.29	.2
308.15	.0151	1521.74	.2
308.15	.0226	1522.58	.2
308.15	.0306	1523.46	.2
308.15	.0384	1524.36	.2
308.15	.0571	1526.38	.2
308.15	.0778	1528.63	.2
308.15	.097	1530.66	.2
308.15	.1158	1532.62	.2
308.15	.1383	1534.91	.2
308.15	.1566	1536.72	.2
308.15	.174	1538.4	.2

System: water + sodium dihydrogen citrate + 1-heptyl-3-methylimidazolium bromide; phases: Liquid
Fixed: Pressure, kPa = 101.3
Fixed: Molality, mol/kg of sodium dihydrogen citrate = .1
Property: Speed of sound, m/s (Liquid); method: Single path-length method
Temperature, K	Molality, mol/kg of 1-heptyl-3-methylimidazolium bromide	Speed of sound, m/s	uncertainty
288.15	0	1477.57	.2
288.15	.0037	1478.12	.2
288.15	.0057	1478.46	.2
288.15	.0074	1478.73	.2
288.15	.0095	1479.08	.2
288.15	.0152	1480	.2
288.15	.03	1482.36	.2
288.15	.0385	1483.68	.2
288.15	.0563	1486.56	.2
288.15	.0771	1489.83	.2
288.15	.096	1492.68	.2
288.15	.1154	1495.64	.2
288.15	.1354	1498.58	.2
288.15	.1548	1501.41	.2
288.15	.1737	1504.03	.2
293.15	0	1492.97	.2
293.15	.0037	1493.47	.2
293.15	.0057	1493.79	.2
293.15	.0074	1494.06	.2
293.15	.0095	1494.36	.2
293.15	.0152	1495.22	.2
293.15	.03	1497.37	.2
293.15	.0385	1498.6	.2
293.15	.0563	1501.17	.2
293.15	.0771	1504.12	.2
293.15	.096	1506.72	.2
293.15	.1154	1509.38	.2
293.15	.1354	1512.04	.2
293.15	.1548	1514.59	.2
293.15	.1737	1516.99	.2
298.15	0	1506.6	.2
298.15	.0037	1507.01	.2
298.15	.0057	1507.3	.2
298.15	.0074	1507.54	.2
298.15	.0095	1507.81	.2
298.15	.0152	1508.58	.2
298.15	.03	1510.53	.2
298.15	.0385	1511.67	.2
298.15	.0563	1513.97	.2
298.15	.0771	1516.67	.2
298.15	.096	1519.04	.2
298.15	.1154	1521.45	.2
298.15	.1354	1523.84	.2
298.15	.1548	1526.16	.2
298.15	.1737	1528.31	.2
303.15	0	1518.45	.2
303.15	.0037	1518.79	.2
303.15	.0057	1519.01	.2
303.15	.0074	1519.23	.2
303.15	.0095	1519.48	.2
303.15	.0152	1520.21	.2
303.15	.03	1521.97	.2
303.15	.0385	1522.97	.2
303.15	.0563	1525.1	.2
303.15	.0771	1527.5	.2
303.15	.096	1529.64	.2
303.15	.1154	1531.8	.2
303.15	.1354	1533.98	.2
303.15	.1548	1536.03	.2
303.15	.1737	1537.98	.2
308.15	0	1528.62	.2
308.15	.0037	1528.88	.2
308.15	.0057	1529.08	.2
308.15	.0074	1529.28	.2
308.15	.0095	1529.52	.2
308.15	.0152	1530.16	.2
308.15	.03	1531.75	.2
308.15	.0385	1532.66	.2
308.15	.0563	1534.55	.2
308.15	.0771	1536.74	.2
308.15	.096	1538.64	.2
308.15	.1154	1540.59	.2
308.15	.1354	1542.54	.2
308.15	.1548	1544.38	.2
308.15	.1737	1546.12	.2

System: water + sodium dihydrogen citrate + 1-heptyl-3-methylimidazolium bromide; phases: Liquid
Fixed: Pressure, kPa = 101.3
Fixed: Molality, mol/kg of sodium dihydrogen citrate = .1
Property: Mass density, kg/m3 (Liquid); method: Vibrating tube method
Temperature, K	Molality, mol/kg of 1-heptyl-3-methylimidazolium bromide	Mass density, kg/m3	uncertainty
288.15	0	1010.511	.003
288.15	.0037	1010.683	.003
288.15	.0057	1010.779	.003
288.15	.0074	1010.856	.003
288.15	.0095	1010.95	.003
288.15	.0152	1011.22	.003
288.15	.03	1011.902	.003
288.15	.0385	1012.294	.003
288.15	.0563	1013.104	.003
288.15	.0771	1014.048	.003
288.15	.096	1014.897	.003
288.15	.1154	1015.762	.003
288.15	.1354	1016.647	.003
288.15	.1548	1017.503	.003
288.15	.1737	1018.327	.003
293.15	0	1009.458	.003
293.15	.0037	1009.627	.003
293.15	.0057	1009.72	.003
293.15	.0074	1009.794	.003
293.15	.0095	1009.888	.003
293.15	.0152	1010.151	.003
293.15	.03	1010.82	.003
293.15	.0385	1011.201	.003
293.15	.0563	1011.993	.003
293.15	.0771	1012.916	.003
293.15	.096	1013.747	.003
293.15	.1154	1014.594	.003
293.15	.1354	1015.458	.003
293.15	.1548	1016.296	.003
293.15	.1737	1017.1	.003
298.15	0	1008.157	.003
298.15	.0037	1008.323	.003
298.15	.0057	1008.414	.003
298.15	.0074	1008.489	.003
298.15	.0095	1008.579	.003
298.15	.0152	1008.837	.003
298.15	.03	1009.491	.003
298.15	.0385	1009.864	.003
298.15	.0563	1010.642	.003
298.15	.0771	1011.547	.003
298.15	.096	1012.359	.003
298.15	.1154	1013.188	.003
298.15	.1354	1014.034	.003
298.15	.1548	1014.852	.003
298.15	.1737	1015.64	.003
303.15	0	1006.637	.003
303.15	.0037	1006.799	.003
303.15	.0057	1006.889	.003
303.15	.0074	1006.96	.003
303.15	.0095	1007.05	.003
303.15	.0152	1007.302	.003
303.15	.03	1007.944	.003
303.15	.0385	1008.312	.003
303.15	.0563	1009.073	.003
303.15	.0771	1009.961	.003
303.15	.096	1010.757	.003
303.15	.1154	1011.566	.003
303.15	.1354	1012.396	.003
303.15	.1548	1013.2	.003
303.15	.1737	1013.971	.003
308.15	0	1004.911	.003
308.15	.0037	1005.07	.003
308.15	.0057	1005.157	.003
308.15	.0074	1005.229	.003
308.15	.0095	1005.316	.003
308.15	.0152	1005.565	.003
308.15	.03	1006.194	.003
308.15	.0385	1006.555	.003
308.15	.0563	1007.303	.003
308.15	.0771	1008.173	.003
308.15	.096	1008.953	.003
308.15	.1154	1009.749	.003
308.15	.1354	1010.564	.003
308.15	.1548	1011.35	.003
308.15	.1737	1012.108	.003

System: water + sodium dihydrogen citrate + 1-heptyl-3-methylimidazolium bromide; phases: Liquid
Fixed: Pressure, kPa = 101.3
Property: Electrical conductivity, S/m (Liquid); method: Alternating current cell with electrodes
Molality, mol/kg of sodium dihydrogen citrate	Temperature, K	Amount concentration (molarity), mol/dm3 of 1-heptyl-3-methylimidazolium bromide	Electrical conductivity, S/m	uncertainty
0	298.15	.0002878	.0033	.0002
0	298.15	.0010751	.01193	.0002
0	298.15	.0017617	.01926	.0002
0	298.15	.0024809	.02676	.0002
0	298.15	.0031763	.03386	.0002
0	298.15	.0038736	.04086	.0002
0	298.15	.0045108	.04736	.0002
0	298.15	.0051461	.05376	.0002
0	298.15	.0058157	.06046	.0002
0	298.15	.006503	.06736	.0002
0	298.15	.0071363	.07366	.0002
0	298.15	.0077721	.07996	.0002
0	298.15	.0084123	.08616	.0002
0	298.15	.0090876	.09286	.0002
0	298.15	.0096842	.09876	.0002
0	298.15	.0103331	.10496	.0002
0	298.15	.0109797	.11116	.0002
0	298.15	.0116111	.11736	.0002
0	298.15	.0122467	.12346	.0002
0	298.15	.0128653	.12946	.0002
0	298.15	.013461	.13526	.0002
0	298.15	.0141149	.14156	.0002
0	298.15	.0146922	.14716	.0002
0	298.15	.0153006	.15306	.0002
0	298.15	.0158989	.15876	.0002
0	298.15	.0164891	.16446	.0002
0	298.15	.0170675	.16996	.0002
0	298.15	.0176561	.17556	.0002
0	298.15	.0182033	.18076	.0002
0	298.15	.0187589	.18606	.0002
0	298.15	.0193774	.19196	.0002
0	298.15	.0205188	.20286	.0002
0	303.15	.0002709	.00321	.0002
0	303.15	.0008305	.00938	.0002
0	303.15	.0013958	.01544	.0002
0	303.15	.0019775	.02155	.0002
0	303.15	.0025165	.02725	.0002
0	303.15	.0030655	.03305	.0002
0	303.15	.00362	.03885	.0002
0	303.15	.0041413	.04425	.0002
0	303.15	.004696	.04995	.0002
0	303.15	.0051987	.05515	.0002
0	303.15	.005722	.06045	.0002
0	303.15	.0062929	.06625	.0002
0	303.15	.0068499	.07185	.0002
0	303.15	.0073766	.07725	.0002
0	303.15	.0078694	.08225	.0002
0	303.15	.0083741	.08735	.0002
0	303.15	.0089291	.09295	.0002
0	303.15	.0094179	.09785	.0002
0	303.15	.0099425	.10325	.0002
0	303.15	.0104421	.10835	.0002
0	303.15	.010963	.11355	.0002
0	303.15	.0114531	.11855	.0002
0	303.15	.0119822	.12395	.0002
0	303.15	.0124807	.12895	.0002
0	303.15	.0129745	.13395	.0002
0	303.15	.0134463	.13875	.0002
0	303.15	.013904	.14345	.0002
0	303.15	.0144075	.14865	.0002
0	303.15	.0149083	.15375	.0002
0	303.15	.0153663	.15845	.0002
0	303.15	.0157993	.16285	.0002
0	303.15	.0162886	.16775	.0002
0	303.15	.0167565	.17245	.0002
0	303.15	.0172164	.17705	.0002
0	303.15	.0176962	.18195	.0002
0	303.15	.0181919	.18695	.0002
0	303.15	.0186995	.19205	.0002
0	303.15	.0194409	.19945	.0002
0	303.15	.0200859	.20585	.0002
0	308.15	.0021353	.02364	.0002
0	308.15	.0028721	.03154	.0002
0	308.15	.0036354	.03964	.0002
0	308.15	.0043176	.04674	.0002
0	308.15	.0049657	.05354	.0002
0	308.15	.0056564	.06084	.0002
0	308.15	.0063733	.06834	.0002
0	308.15	.0070672	.07554	.0002
0	308.15	.0077208	.08234	.0002
0	308.15	.00842	.08964	.0002
0	308.15	.0090601	.09624	.0002
0	308.15	.0097365	.10334	.0002
0	308.15	.0103292	.10944	.0002
0	308.15	.0108842	.11524	.0002
0	308.15	.0115201	.12184	.0002
0	308.15	.0122144	.12904	.0002
0	308.15	.0128619	.13584	.0002
0	308.15	.0135111	.14264	.0002
0	308.15	.0141413	.14924	.0002
0	308.15	.0146737	.15484	.0002
0	308.15	.015306	.16154	.0002
0	308.15	.0158677	.16734	.0002
0	308.15	.0165016	.17404	.0002
0	308.15	.0169767	.17904	.0002
0	308.15	.0179404	.18914	.0002
0	308.15	.0191418	.20184	.0002
0	308.15	.0202868	.21384	.0002
.1	298.15	0	.589	.0002
.1	298.15	.0003258	.594	.0002
.1	298.15	.0011344	.599	.0002
.1	298.15	.0021365	.605	.0002
.1	298.15	.0028945	.61	.0002
.1	298.15	.0036658	.615	.0002
.1	298.15	.004572	.621	.0002
.1	298.15	.0055127	.627	.0002
.1	298.15	.0063486	.632	.0002
.1	298.15	.0071166	.637	.0002
.1	298.15	.0078706	.642	.0002
.1	298.15	.0086603	.647	.0002
.1	298.15	.0093816	.651	.0002
.1	298.15	.0102021	.656	.0002
.1	298.15	.0110232	.661	.0002
.1	298.15	.0118295	.666	.0002
.1	298.15	.0125767	.67	.0002
.1	298.15	.0133624	.675	.0002
.1	298.15	.0141512	.68	.0002
.1	298.15	.0149139	.684	.0002
.1	298.15	.0157063	.689	.0002
.1	298.15	.0164371	.694	.0002
.1	298.15	.0171289	.697	.0002
.1	298.15	.0178295	.702	.0002
.1	298.15	.0185737	.707	.0002
.1	298.15	.019284	.711	.0002
.1	298.15	.0200254	.715	.0002
.1	298.15	.0207311	.719	.0002
.1	298.15	.0214041	.723	.0002
.1	298.15	.0220989	.727	.0002
.1	298.15	.0251667	.744	.0002
.1	303.15	0	.616	.0002
.1	303.15	.000581	.623	.0002
.1	303.15	.0009051	.625	.0002
.1	303.15	.0015328	.63	.0002
.1	303.15	.0021737	.635	.0002
.1	303.15	.0028543	.64	.0002
.1	303.15	.003506	.645	.0002
.1	303.15	.0041846	.65	.0002
.1	303.15	.0047844	.654	.0002
.1	303.15	.00534	.658	.0002
.1	303.15	.0059917	.663	.0002
.1	303.15	.0065405	.667	.0002
.1	303.15	.0071724	.671	.0002
.1	303.15	.0077353	.675	.0002
.1	303.15	.008364	.679	.0002
.1	303.15	.0089587	.683	.0002
.1	303.15	.0095293	.687	.0002
.1	303.15	.0101145	.691	.0002
.1	303.15	.0107635	.695	.0002
.1	303.15	.0113433	.699	.0002
.1	303.15	.0118841	.703	.0002
.1	303.15	.0124614	.707	.0002
.1	303.15	.0130154	.711	.0002
.1	303.15	.0135574	.715	.0002
.1	303.15	.0140853	.719	.0002
.1	303.15	.0146081	.723	.0002
.1	303.15	.0151322	.727	.0002
.1	303.15	.0156896	.731	.0002
.1	303.15	.0162879	.735	.0002
.1	303.15	.0168781	.739	.0002
.1	303.15	.0173872	.743	.0002
.1	303.15	.0179413	.747	.0002
.1	303.15	.018803	.753	.0002
.1	303.15	.0196687	.759	.0002
.1	308.15	0	.625	.0002
.1	308.15	.0002934	.635	.0002
.1	308.15	.0009498	.64	.0002
.1	308.15	.0017093	.645	.0002
.1	308.15	.0023871	.65	.0002
.1	308.15	.0031096	.655	.0002
.1	308.15	.0038151	.66	.0002
.1	308.15	.0045109	.665	.0002
.1	308.15	.0052339	.67	.0002
.1	308.15	.005899	.675	.0002
.1	308.15	.0065186	.68	.0002
.1	308.15	.0071928	.685	.0002
.1	308.15	.0078712	.69	.0002
.1	308.15	.0085493	.695	.0002
.1	308.15	.0092005	.7	.0002
.1	308.15	.0098734	.705	.0002
.1	308.15	.0104676	.71	.0002
.1	308.15	.0111402	.715	.0002
.1	308.15	.0117865	.72	.0002
.1	308.15	.0124241	.725	.0002
.1	308.15	.0130996	.73	.0002
.1	308.15	.0136925	.735	.0002
.1	308.15	.0143108	.74	.0002
.1	308.15	.0149643	.745	.0002
.1	308.15	.0156153	.75	.0002
.1	308.15	.0162493	.755	.0002
.1	308.15	.0167591	.76	.0002
.1	308.15	.0173549	.765	.0002
.1	308.15	.0179327	.77	.0002
.1	308.15	.0189088	.777	.0002
.1	308.15	.0202466	.788	.0002

System: disodium hydrogen citrate + water + 1-heptyl-3-methylimidazolium bromide; phases: Liquid
Fixed: Pressure, kPa = 101.3
Fixed: Molality, mol/kg of disodium hydrogen citrate = .1
Property: Mass density, kg/m3 (Liquid); method: Vibrating tube method
Temperature, K	Molality, mol/kg of 1-heptyl-3-methylimidazolium bromide	Mass density, kg/m3	uncertainty
288.15	0	1014.066	.003
288.15	.0038	1014.235	.003
288.15	.0057	1014.327	.003
288.15	.0076	1014.409	.003
288.15	.0094	1014.493	.003
288.15	.0112	1014.576	.003
288.15	.0153	1014.765	.003
288.15	.0229	1015.109	.003
288.15	.0306	1015.458	.003
288.15	.0564	1016.62	.003
288.15	.0765	1017.52	.003
288.15	.0976	1018.455	.003
288.15	.117	1019.308	.003
288.15	.138	1020.227	.003
288.15	.1586	1021.124	.003
288.15	.1788	1021.992	.003
293.15	0	1012.983	.003
293.15	.0038	1013.151	.003
293.15	.0057	1013.239	.003
293.15	.0076	1013.319	.003
293.15	.0094	1013.4	.003
293.15	.0112	1013.484	.003
293.15	.0153	1013.668	.003
293.15	.0229	1014.004	.003
293.15	.0306	1014.346	.003
293.15	.0564	1015.483	.003
293.15	.0765	1016.362	.003
293.15	.0976	1017.276	.003
293.15	.117	1018.11	.003
293.15	.138	1019.009	.003
293.15	.1586	1019.883	.003
293.15	.1788	1020.734	.003
298.15	0	1011.661	.003
298.15	.0038	1011.826	.003
298.15	.0057	1011.912	.003
298.15	.0076	1011.991	.003
298.15	.0094	1012.07	.003
298.15	.0112	1012.151	.003
298.15	.0153	1012.332	.003
298.15	.0229	1012.662	.003
298.15	.0306	1012.998	.003
298.15	.0564	1014.11	.003
298.15	.0765	1014.97	.003
298.15	.0976	1015.864	.003
298.15	.117	1016.68	.003
298.15	.138	1017.561	.003
298.15	.1586	1018.417	.003
298.15	.1788	1019.247	.003
303.15	0	1010.123	.003
303.15	.0038	1010.283	.003
303.15	.0057	1010.369	.003
303.15	.0076	1010.446	.003
303.15	.0094	1010.524	.003
303.15	.0112	1010.604	.003
303.15	.0153	1010.78	.003
303.15	.0229	1011.104	.003
303.15	.0306	1011.432	.003
303.15	.0564	1012.523	.003
303.15	.0765	1013.366	.003
303.15	.0976	1014.243	.003
303.15	.117	1015.045	.003
303.15	.138	1015.905	.003
303.15	.1586	1016.742	.003
303.15	.1788	1017.556	.003
308.15	0	1008.383	.003
308.15	.0038	1008.54	.003
308.15	.0057	1008.624	.003
308.15	.0076	1008.703	.003
308.15	.0094	1008.776	.003
308.15	.0112	1008.853	.003
308.15	.0153	1009.029	.003
308.15	.0229	1009.345	.003
308.15	.0306	1009.666	.003
308.15	.0564	1010.74	.003
308.15	.0765	1011.565	.003
308.15	.0976	1012.426	.003
308.15	.117	1013.21	.003
308.15	.138	1014.055	.003
308.15	.1586	1014.876	.003
308.15	.1788	1015.675	.003

System: disodium hydrogen citrate + water + 1-heptyl-3-methylimidazolium bromide; phases: Liquid
Fixed: Pressure, kPa = 101.3
Fixed: Molality, mol/kg of disodium hydrogen citrate = .1
Property: Speed of sound, m/s (Liquid); method: Single path-length method
Temperature, K	Molality, mol/kg of 1-heptyl-3-methylimidazolium bromide	Speed of sound, m/s	uncertainty
288.15	0	1483.29	.2
288.15	.0038	1484.04	.2
288.15	.0057	1484.33	.2
288.15	.0076	1484.73	.2
288.15	.0094	1484.96	.2
288.15	.0112	1485.3	.2
288.15	.0153	1485.93	.2
288.15	.0229	1487.21	.2
288.15	.0306	1488.49	.2
288.15	.0564	1492.6	.2
288.15	.0765	1495.67	.2
288.15	.0976	1498.99	.2
288.15	.117	1501.96	.2
288.15	.138	1505.01	.2
288.15	.1586	1508.03	.2
288.15	.1788	1510.87	.2
293.15	0	1498.73	.2
293.15	.0038	1499.34	.2
293.15	.0057	1499.67	.2
293.15	.0076	1499.97	.2
293.15	.0094	1500.22	.2
293.15	.0112	1500.52	.2
293.15	.0153	1501.07	.2
293.15	.0229	1502.25	.2
293.15	.0306	1503.39	.2
293.15	.0564	1507.04	.2
293.15	.0765	1509.95	.2
293.15	.0976	1512.88	.2
293.15	.117	1515.6	.2
293.15	.138	1518.38	.2
293.15	.1586	1521.14	.2
293.15	.1788	1523.75	.2
298.15	0	1512.27	.2
298.15	.0038	1512.81	.2
298.15	.0057	1513.11	.2
298.15	.0076	1513.4	.2
298.15	.0094	1513.61	.2
298.15	.0112	1513.89	.2
298.15	.0153	1514.38	.2
298.15	.0229	1515.45	.2
298.15	.0306	1516.49	.2
298.15	.0564	1519.81	.2
298.15	.0765	1522.44	.2
298.15	.0976	1525.11	.2
298.15	.117	1527.58	.2
298.15	.138	1530.08	.2
298.15	.1586	1532.58	.2
298.15	.1788	1534.9	.2
303.15	0	1524.08	.2
303.15	.0038	1524.55	.2
303.15	.0057	1524.82	.2
303.15	.0076	1525.04	.2
303.15	.0094	1525.26	.2
303.15	.0112	1525.51	.2
303.15	.0153	1525.97	.2
303.15	.0229	1526.94	.2
303.15	.0306	1527.86	.2
303.15	.0564	1530.88	.2
303.15	.0765	1533.27	.2
303.15	.0976	1535.65	.2
303.15	.117	1537.83	.2
303.15	.138	1540.11	.2
303.15	.1586	1542.34	.2
303.15	.1788	1544.43	.2
308.15	0	1534.2	.2
308.15	.0038	1534.6	.2
308.15	.0057	1534.83	.2
308.15	.0076	1535.05	.2
308.15	.0094	1535.24	.2
308.15	.0112	1535.46	.2
308.15	.0153	1535.87	.2
308.15	.0229	1536.75	.2
308.15	.0306	1537.62	.2
308.15	.0564	1540.28	.2
308.15	.0765	1542.43	.2
308.15	.0976	1544.57	.2
308.15	.117	1546.54	.2
308.15	.138	1548.58	.2
308.15	.1586	1550.56	.2
308.15	.1788	1552.43	.2

System: disodium hydrogen citrate + water + 1-heptyl-3-methylimidazolium bromide; phases: Liquid
Fixed: Pressure, kPa = 101.3
Fixed: Molality, mol/kg of disodium hydrogen citrate = .1
Property: Electrical conductivity, S/m (Liquid); method: Alternating current cell with electrodes
Temperature, K	Amount concentration (molarity), mol/dm3 of 1-heptyl-3-methylimidazolium bromide	Electrical conductivity, S/m	uncertainty
298.15	0	1.238	.0002
298.15	.000256	1.24	.0002
298.15	.0008465	1.241	.0002
298.15	.0014672	1.243	.0002
298.15	.0020421	1.245	.0002
298.15	.0026512	1.247	.0002
298.15	.003304	1.249	.0002
298.15	.0039873	1.251	.0002
298.15	.004617	1.253	.0002
298.15	.0052791	1.255	.0002
298.15	.0058562	1.257	.0002
298.15	.0064779	1.259	.0002
298.15	.0071531	1.261	.0002
298.15	.0077862	1.263	.0002
298.15	.0086009	1.265	.0002
298.15	.0093157	1.267	.0002
298.15	.0099384	1.269	.0002
298.15	.0105628	1.271	.0002
298.15	.0111869	1.273	.0002
298.15	.0130214	1.278	.0002
298.15	.015014	1.284	.0002
298.15	.0161441	1.287	.0002
298.15	.0173707	1.29	.0002
298.15	.0191617	1.295	.0002
303.15	0	1.26	.0002
303.15	.0003323	1.263	.0002
303.15	.0006222	1.264	.0002
303.15	.001238	1.267	.0002
303.15	.0018882	1.27	.0002
303.15	.0025265	1.273	.0002
303.15	.0031154	1.276	.0002
303.15	.0037458	1.279	.0002
303.15	.0043224	1.282	.0002
303.15	.0049326	1.285	.0002
303.15	.0055415	1.288	.0002
303.15	.0062076	1.291	.0002
303.15	.00676	1.294	.0002
303.15	.0073503	1.297	.0002
303.15	.0079584	1.3	.0002
303.15	.0085746	1.303	.0002
303.15	.0092318	1.306	.0002
303.15	.0097834	1.309	.0002
303.15	.0103482	1.312	.0002
303.15	.0109351	1.315	.0002
303.15	.0115345	1.318	.0002
303.15	.0121759	1.321	.0002
303.15	.0127173	1.324	.0002
303.15	.0132896	1.327	.0002
303.15	.0138943	1.33	.0002
303.15	.0146848	1.334	.0002
303.15	.0157356	1.339	.0002
308.15	0	1.273	.0002
308.15	.0003372	1.277	.0002
308.15	.000959	1.28	.0002
308.15	.0015417	1.283	.0002
308.15	.002121	1.286	.0002
308.15	.0026814	1.289	.0002
308.15	.0032655	1.292	.0002
308.15	.0038461	1.295	.0002
308.15	.0044214	1.298	.0002
308.15	.0049839	1.301	.0002
308.15	.0055655	1.304	.0002
308.15	.0061288	1.307	.0002
308.15	.0066925	1.31	.0002
308.15	.0072916	1.313	.0002
308.15	.0078338	1.316	.0002
308.15	.0083639	1.319	.0002
308.15	.0089236	1.322	.0002
308.15	.0094494	1.325	.0002
308.15	.0099525	1.328	.0002
308.15	.010469	1.331	.0002
308.15	.011027	1.334	.0002
308.15	.0115606	1.337	.0002
308.15	.0120998	1.34	.0002
308.15	.0126603	1.343	.0002
308.15	.0132054	1.346	.0002
308.15	.0137558	1.349	.0002
308.15	.0148333	1.355	.0002
308.15	.0153876	1.358	.0002
308.15	.0159268	1.361	.0002
308.15	.0164211	1.364	.0002
308.15	.0169592	1.367	.0002
308.15	.0175338	1.37	.0002
308.15	.0180587	1.373	.0002

System: 3-carboxy-3-hydroxy-pentan-1,5-dioic acid trisodium salt + water + 1-heptyl-3-methylimidazolium bromide; phases: Liquid
Fixed: Pressure, kPa = 101.3
Fixed: Molality, mol/kg of 3-carboxy-3-hydroxy-pentan-1,5-dioic acid trisodium salt = .1
Property: Mass density, kg/m3 (Liquid); method: Vibrating tube method
Temperature, K	Molality, mol/kg of 1-heptyl-3-methylimidazolium bromide	Mass density, kg/m3	uncertainty
288.15	0	1017.533	.003
288.15	.0039	1017.706	.003
288.15	.0057	1017.783	.003
288.15	.0078	1017.88	.003
288.15	.0096	1017.959	.003
288.15	.0114	1018.037	.003
288.15	.0153	1018.216	.003
288.15	.0228	1018.554	.003
288.15	.0307	1018.909	.003
288.15	.0385	1019.256	.003
288.15	.0582	1020.125	.003
288.15	.0777	1020.982	.003
288.15	.097	1021.824	.003
288.15	.1187	1022.759	.003
288.15	.1385	1023.612	.003
288.15	.1591	1024.493	.003
288.15	.1806	1025.405	.003
293.15	0	1016.446	.003
293.15	.0039	1016.616	.003
293.15	.0057	1016.692	.003
293.15	.0078	1016.785	.003
293.15	.0096	1016.864	.003
293.15	.0114	1016.942	.003
293.15	.0153	1017.117	.003
293.15	.0228	1017.445	.003
293.15	.0307	1017.794	.003
293.15	.0385	1018.131	.003
293.15	.0582	1018.981	.003
293.15	.0777	1019.82	.003
293.15	.097	1020.642	.003
293.15	.1187	1021.555	.003
293.15	.1385	1022.389	.003
293.15	.1591	1023.25	.003
293.15	.1806	1024.142	.003
298.15	0	1015.125	.003
298.15	.0039	1015.291	.003
298.15	.0057	1015.364	.003
298.15	.0078	1015.458	.003
298.15	.0096	1015.533	.003
298.15	.0114	1015.607	.003
298.15	.0153	1015.782	.003
298.15	.0228	1016.104	.003
298.15	.0307	1016.443	.003
298.15	.0385	1016.774	.003
298.15	.0582	1017.606	.003
298.15	.0777	1018.425	.003
298.15	.097	1019.231	.003
298.15	.1187	1020.126	.003
298.15	.1385	1020.936	.003
298.15	.1591	1021.78	.003
298.15	.1806	1022.651	.003
303.15	0	1013.59	.003
303.15	.0039	1013.754	.003
303.15	.0057	1013.825	.003
303.15	.0078	1013.917	.003
303.15	.0096	1013.992	.003
303.15	.0114	1014.067	.003
303.15	.0153	1014.233	.003
303.15	.0228	1014.548	.003
303.15	.0307	1014.884	.003
303.15	.0385	1015.206	.003
303.15	.0582	1016.023	.003
303.15	.0777	1016.826	.003
303.15	.097	1017.613	.003
303.15	.1187	1018.489	.003
303.15	.1385	1019.285	.003
303.15	.1591	1020.109	.003
303.15	.1806	1020.961	.003
308.15	0	1011.858	.003
308.15	.0039	1012.018	.003
308.15	.0057	1012.09	.003
308.15	.0078	1012.18	.003
308.15	.0096	1012.252	.003
308.15	.0114	1012.325	.003
308.15	.0153	1012.49	.003
308.15	.0228	1012.802	.003
308.15	.0307	1013.128	.003
308.15	.0385	1013.445	.003
308.15	.0582	1014.245	.003
308.15	.0777	1015.031	.003
308.15	.097	1015.804	.003
308.15	.1187	1016.664	.003
308.15	.1385	1017.444	.003
308.15	.1591	1018.25	.003
308.15	.1806	1019.084	.003

System: 3-carboxy-3-hydroxy-pentan-1,5-dioic acid trisodium salt + water + 1-heptyl-3-methylimidazolium bromide; phases: Liquid
Fixed: Pressure, kPa = 101.3
Fixed: Molality, mol/kg of 3-carboxy-3-hydroxy-pentan-1,5-dioic acid trisodium salt = .1
Property: Speed of sound, m/s (Liquid); method: Single path-length method
Temperature, K	Molality, mol/kg of 1-heptyl-3-methylimidazolium bromide	Speed of sound, m/s	uncertainty
288.15	0	1488.41	.2
288.15	.0039	1489.23	.2
288.15	.0057	1489.45	.2
288.15	.0078	1489.96	.2
288.15	.0096	1490.16	.2
288.15	.0114	1490.43	.2
288.15	.0153	1491.15	.2
288.15	.0228	1492.38	.2
288.15	.0307	1493.61	.2
288.15	.0385	1494.93	.2
288.15	.0582	1498.12	.2
288.15	.0777	1501.19	.2
288.15	.097	1504.24	.2
288.15	.1187	1507.57	.2
288.15	.1385	1510.5	.2
288.15	.1591	1513.57	.2
288.15	.1806	1516.63	.2
293.15	0	1503.92	.2
293.15	.0039	1504.59	.2
293.15	.0057	1504.86	.2
293.15	.0078	1505.19	.2
293.15	.0096	1505.47	.2
293.15	.0114	1505.73	.2
293.15	.0153	1506.26	.2
293.15	.0228	1507.45	.2
293.15	.0307	1508.62	.2
293.15	.0385	1509.8	.2
293.15	.0582	1512.65	.2
293.15	.0777	1515.51	.2
293.15	.097	1518.24	.2
293.15	.1187	1521.24	.2
293.15	.1385	1523.95	.2
293.15	.1591	1526.69	.2
293.15	.1806	1529.46	.2
298.15	0	1517.53	.2
298.15	.0039	1518.16	.2
298.15	.0057	1518.39	.2
298.15	.0078	1518.69	.2
298.15	.0096	1518.97	.2
298.15	.0114	1519.18	.2
298.15	.0153	1519.65	.2
298.15	.0228	1520.74	.2
298.15	.0307	1521.85	.2
298.15	.0385	1522.9	.2
298.15	.0582	1525.47	.2
298.15	.0777	1528.06	.2
298.15	.097	1530.52	.2
298.15	.1187	1533.24	.2
298.15	.1385	1535.67	.2
298.15	.1591	1538.11	.2
298.15	.1806	1540.61	.2
303.15	0	1529.38	.2
303.15	.0039	1529.93	.2
303.15	.0057	1530.15	.2
303.15	.0078	1530.44	.2
303.15	.0096	1530.66	.2
303.15	.0114	1530.88	.2
303.15	.0153	1531.3	.2
303.15	.0228	1532.31	.2
303.15	.0307	1533.31	.2
303.15	.0385	1534.22	.2
303.15	.0582	1536.54	.2
303.15	.0777	1538.86	.2
303.15	.097	1541.1	.2
303.15	.1187	1543.5	.2
303.15	.1385	1545.69	.2
303.15	.1591	1547.88	.2
303.15	.1806	1550.11	.2
308.15	0	1539.53	.2
308.15	.0039	1540.02	.2
308.15	.0057	1540.23	.2
308.15	.0078	1540.47	.2
308.15	.0096	1540.69	.2
308.15	.0114	1540.86	.2
308.15	.0153	1541.27	.2
308.15	.0228	1542.14	.2
308.15	.0307	1543.03	.2
308.15	.0385	1543.88	.2
308.15	.0582	1545.98	.2
308.15	.0777	1548.05	.2
308.15	.097	1550.05	.2
308.15	.1187	1552.21	.2
308.15	.1385	1554.15	.2
308.15	.1591	1556.11	.2
308.15	.1806	1558.12	.2

System: 3-carboxy-3-hydroxy-pentan-1,5-dioic acid trisodium salt + water + 1-heptyl-3-methylimidazolium bromide; phases: Liquid
Fixed: Pressure, kPa = 101.3
Fixed: Molality, mol/kg of 3-carboxy-3-hydroxy-pentan-1,5-dioic acid trisodium salt = .1
Property: Electrical conductivity, S/m (Liquid); method: Alternating current cell with electrodes
Temperature, K	Molality, mol/kg of 1-heptyl-3-methylimidazolium bromide	Electrical conductivity, S/m	uncertainty
298.15	0	1.723	.0002
298.15	.0003678	1.725	.0002
298.15	.0011906	1.726	.0002
298.15	.0019601	1.727	.0002
298.15	.0027625	1.728	.0002
298.15	.0035679	1.729	.0002
298.15	.0042524	1.73	.0002
298.15	.0049582	1.731	.0002
298.15	.0057293	1.732	.0002
298.15	.0065386	1.733	.0002
298.15	.007265	1.734	.0002
298.15	.0080271	1.735	.0002
298.15	.0088606	1.736	.0002
298.15	.0096485	1.737	.0002
298.15	.0103941	1.738	.0002
298.15	.0112271	1.739	.0002
298.15	.0119339	1.74	.0002
298.15	.0126464	1.741	.0002
298.15	.0133384	1.742	.0002
298.15	.0139929	1.743	.0002
298.15	.0147368	1.744	.0002
298.15	.0153476	1.745	.0002
298.15	.0160408	1.746	.0002
298.15	.0166932	1.747	.0002
303.15	0	1.739	.0002
303.15	.0003746	1.744	.0002
303.15	.0007308	1.746	.0002
303.15	.0014731	1.749	.0002
303.15	.0023051	1.752	.0002
303.15	.0030635	1.755	.0002
303.15	.0037996	1.758	.0002
303.15	.0046176	1.761	.0002
303.15	.0053149	1.764	.0002
303.15	.0060288	1.767	.0002
303.15	.0067186	1.77	.0002
303.15	.0073664	1.773	.0002
303.15	.0081048	1.776	.0002
303.15	.0088166	1.779	.0002
303.15	.0095064	1.782	.0002
303.15	.0101484	1.785	.0002
303.15	.010822	1.788	.0002
303.15	.0114577	1.791	.0002
303.15	.0120993	1.794	.0002
303.15	.0127089	1.797	.0002
303.15	.0133568	1.8	.0002
303.15	.0140078	1.803	.0002
303.15	.0146296	1.806	.0002
303.15	.0153765	1.809	.0002
303.15	.0163615	1.814	.0002
308.15	0	1.764	.0002
308.15	.0002968	1.77	.0002
308.15	.0009315	1.773	.0002
308.15	.001576	1.776	.0002
308.15	.0022222	1.779	.0002
308.15	.0028173	1.782	.0002
308.15	.0034127	1.785	.0002
308.15	.0039853	1.788	.0002
308.15	.0045775	1.791	.0002
308.15	.0051336	1.794	.0002
308.15	.005753	1.797	.0002
308.15	.0063363	1.8	.0002
308.15	.0069274	1.803	.0002
308.15	.0075111	1.806	.0002
308.15	.0081172	1.809	.0002
308.15	.0087102	1.812	.0002
308.15	.0092156	1.815	.0002
308.15	.0097219	1.818	.0002
308.15	.0102599	1.821	.0002
308.15	.0107894	1.824	.0002
308.15	.0113338	1.827	.0002
308.15	.0118999	1.83	.0002
308.15	.0124096	1.833	.0002
308.15	.0129605	1.836	.0002
308.15	.0134732	1.839	.0002
308.15	.0140507	1.843	.0002
308.15	.0148948	1.848	.0002
