Measured thermophysical data. Thermodynamic study of the ternary mixed electrolyte ([EMIm]Br + LiBr + H2O) system using potentiometric measurements
Source: Fluid Phase Equilib., 2017, 10.1016/j.fluid.2016.12.017
Compound 1: lithium bromide, BrLi, purity 99%
Compound 2: 1-ethyl-3-methylimidazolium bromide, C6H11BrN2, purity 98%
Compound 3: water, H2O, purity 99.8%

System: water + 1-ethyl-3-methylimidazolium bromide; phases: Liquid
Fixed: Pressure, kPa = 101
Property: Activity coefficient of 1-ethyl-3-methylimidazolium bromide (Liquid); method: galvanic cell
Temperature, K	Molality, mol/kg of 1-ethyl-3-methylimidazolium bromide	Activity coefficient of 1-ethyl-3-methylimidazolium bromide	uncertainty
298.2	.01	.8883	
298.2	.0199	.8463	
298.2	.0397	.7913	
298.2	.0592	.7529	
298.2	.0785	.723	
298.2	.1001	.6957	
298.2	.1995	.6112	
298.2	.3996	.523	
298.2	.6004	.4738	
298.2	.7996	.4414	
298.2	1.0007	.4172	
298.2	1.1995	.3981	
298.2	1.4	.3819	
298.2	1.5999	.3674	
298.2	1.7998	.3541	
298.2	1.9998	.3414	
308.2	.01	.8949	
308.2	.0199	.8586	
308.2	.0397	.8127	
308.2	.0592	.7813	
308.2	.0785	.757	
308.2	.1001	.7348	
308.2	.1995	.6647	
308.2	.3996	.585	
308.2	.6004	.5344	
308.2	.7996	.4971	
308.2	1.0007	.4669	
308.2	1.1995	.4417	
308.2	1.4	.4196	
308.2	1.5999	.4	
308.2	1.7998	.3824	
308.2	1.9998	.3662	
308.2	2.2001	.3512	
