Measured thermophysical data. Solubilities of D-xylose in water + (acetic acid or propionic acid ) mixtures at atmospheric pressure and different temperatures
Source: Fluid Phase Equilib., 2012, 10.1016/j.fluid.2012.07.014
Compound 1: xylose, D-, C5H10O5, purity 99%
Compound 2: ethanoic acid, C2H4O2, purity 99.5%
Compound 3: methanol, CH4O, purity 99.5%
Compound 4: propanoic acid, C3H6O2, purity 99%
Compound 5: water, H2O

System: xylose, D- + ethanoic acid + water; phases: Liquid, Crystal
Fixed: Pressure, kPa = 101
Property: Mole fraction of xylose, D- (Liquid); method: synthetic method
Temperature, K	Solvent: Volume fraction of water	Mole fraction of xylose, D-	uncertainty
301.95	.1	.007404	
304.75	.1	.00833	
307.35	.1	.009156	
309.45	.1	.009644	
311.35	.1	.010203	
313.15	.1	.007404	
315.05	.1	.00833	
316.65	.1	.009156	
317.95	.1	.009644	
319.45	.1	.010203	
320.95	.1	.01476	
322.1	.1	.01554	
323.45	.1	.01637	
305.25	.2	.01994	
306.35	.2	.02089	
308.55	.2	.02292	
310.75	.2	.02472	
312.6	.2	.02575	
313.75	.2	.02732	
315.45	.2	.02914	
316.85	.2	.03054	
318.35	.2	.03147	
320.05	.2	.03344	
321.45	.2	.03537	
298.85	.3	.02697	
299.95	.3	.02854	
301.05	.3	.03082	
302.75	.3	.03316	
303.55	.3	.0352	
305.15	.3	.03794	
306.05	.3	.03911	
307.15	.3	.04112	
308.35	.3	.04391	
309.65	.3	.04711	
311.05	.3	.04963	
312.45	.3	.05199	
313.85	.3	.05413	
315.05	.3	.05653	
315.95	.3	.05896	
317.15	.3	.0613	
318.35	.3	.06476	
319.95	.3	.06916	
321.15	.3	.07223	
296.65	.4	.03695	
298.55	.4	.03974	
299.65	.4	.04219	
301.5	.4	.04592	
304.65	.4	.05088	
305.7	.4	.05329	
306.95	.4	.05711	
308.05	.4	.06182	
309.55	.4	.06468	
310.25	.4	.06663	
311.25	.4	.06986	
312.2	.4	.07344	
312.95	.4	.07693	
314.05	.4	.08009	
315.55	.4	.08476	
299.05	.5	.05563	
301.45	.5	.0621	
302.85	.5	.06673	
304.25	.5	.07127	
305.65	.5	.07578	
307.1	.5	.08047	
307.95	.5	.08478	
309.35	.5	.08886	
310.45	.5	.09371	
311.45	.5	.09825	
312.45	.5	.1027	
313.45	.5	.1072	
314.65	.5	.1128	
315.85	.5	.1183	
317.05	.5	.1239	
318.35	.5	.1297	
319.65	.5	.1349	

System: xylose, D- + propanoic acid + water; phases: Liquid, Crystal
Fixed: Pressure, kPa = 101
Property: Mole fraction of xylose, D- (Liquid); method: synthetic method
Temperature, K	Solvent: Volume fraction of water	Mole fraction of xylose, D-	uncertainty
307.65	.1	.005625	
310.25	.1	.006038	
311.45	.1	.00632	
312.85	.1	.006568	
314.15	.1	.006896	
315.75	.1	.007261	
317.2	.1	.007559	
318.35	.1	.007725	
319.55	.1	.00792	
321.1	.1	.008086	
322.3	.1	.008305	
323.45	.1	.008623	
324.45	.1	.008738	
325.45	.1	.008922	
300.05	.2	.0137	
302.15	.2	.01499	
303.45	.2	.01601	
304.95	.2	.01696	
306.05	.2	.01786	
306.85	.2	.01823	
307.75	.2	.01922	
308.55	.2	.02022	
309.55	.2	.02127	
310.65	.2	.02248	
311.55	.2	.02342	
312.35	.2	.02444	
313.05	.2	.02542	
313.95	.2	.02634	
314.7	.2	.02725	
315.45	.2	.02843	
316.6	.2	.03	
317.5	.2	.0316	
318.45	.2	.03342	
319.75	.2	.03554	
321.15	.2	.03793	
299.85	.3	.02454	
302.25	.3	.02756	
304.75	.3	.03073	
306.4	.3	.03366	
307.55	.3	.03588	
309.05	.3	.03836	
310.15	.3	.03991	
310.95	.3	.04161	
311.75	.3	.04362	
312.85	.3	.04613	
314.05	.3	.04826	
315.15	.3	.05129	
316.55	.3	.05524	
317.55	.3	.05876	
318.55	.3	.06222	
319.55	.3	.06552	
321.15	.3	.06985	
298.85	.4	.04249	
301.55	.4	.04741	
303.25	.4	.05107	
304.25	.4	.05405	
306.05	.4	.05807	
307.35	.4	.0624	
308.35	.4	.0658	
309.95	.4	.06947	
311.2	.4	.07386	
312.65	.4	.07882	
314.15	.4	.08363	
315.45	.4	.08886	
316.55	.4	.09445	
317.85	.4	.09955	
318.95	.4	.1044	
301.25	.5	.05684	
302.55	.5	.06103	
303.75	.5	.06507	
305.2	.5	.06965	
306.55	.5	.07422	
307.85	.5	.07885	
309.45	.5	.0837	
311.25	.5	.08953	
312.8	.5	.09391	
313.85	.5	.09728	
315.1	.5	.1014	
316.15	.5	.1055	
317.05	.5	.109	
317.75	.5	.1142	
319.15	.5	.1198	
