Measured thermophysical data. Interfacial tension of binary mixtures exhibiting azeotropic behavior: Measurement and modeling with PCP-SAFT combined with Density Gradient Theory
Source: Fluid Phase Equilib., 2014, 10.1016/j.fluid.2013.09.042
Compound 1: N,N-dimethylformamide, C3H7NO, purity 99%
Compound 2: n-heptane, C7H16, purity 99%
Compound 3: n-decane, C10H22, purity 99%
Compound 4: n-dodecane, C12H26, purity 99%

System: N,N-dimethylformamide + n-heptane; phases: Liquid
Fixed: Pressure, kPa = 101
Property: Mass density, kg/m3 (Liquid); method: Vibrating tube method
Temperature, K	Mole fraction of n-heptane	Mass density, kg/m3	uncertainty
298.15	0	944.072	.01
298.15	.016	937.085	.01
298.15	.025	933.113	.01
298.15	.03	930.536	.01
298.15	.037	927.759	.01
298.15	.046	923.761	.01
298.15	.056	919.794	.01
298.15	.057	919.14	.01
298.15	.058	918.702	.01
298.15	.935	687.975	.01
298.15	.944	686.984	.01
298.15	.945	686.853	.01
298.15	.959	684.733	.01
298.15	.975	682.892	.01
298.15	.984	681.827	.01
298.15	1	679.788	.01
318.15	0	924.984	.01
318.15	.016	918.051	.01
318.15	.025	914.603	.01
318.15	.03	911.498	.01
318.15	.037	908.897	.01
318.15	.046	905.072	.01
318.15	.056	901.036	.01
318.15	.057	900.33	.01
318.15	.058	899.742	.01
318.15	.06	899.281	.01
318.15	.08	891.094	.01
318.15	.1	882.094	.01
318.15	.935	670.394	.01
318.15	.944	669.492	.01
318.15	.945	669.302	.01
318.15	.959	667.371	.01
318.15	.975	665.45	.01
318.15	.984	664.351	.01
318.15	1	662.387	.01

System: N,N-dimethylformamide + n-heptane; phases: Liquid mixture 1, Liquid mixture 2
Property: Mass density, kg/m3 (Liquid mixture 1); method: Vibrating tube method
Temperature, K	Mass density, kg/m3	Mass density, kg/m3	uncertainty
297.83	689.08	907.04	.01
308	684.51	888.35	.01
317.75	680.13	868.1	.01
328.15	684.46	839.73	.01

System: N,N-dimethylformamide + n-heptane; phases: Liquid, Air at 1 atmosphere
Property: Interfacial tension, N/m (Liquid); method: Drop volume
Temperature, K	Mole fraction of n-heptane	Interfacial tension, N/m	uncertainty
298.15	0	.036	.0003
298.15	.016	.03408	.0003
298.15	.025	.03216	.0003
298.15	.03	.03141	.0003
298.15	.046	.02874	.0003
298.15	.056	.02769	.0003
298.15	.057	.02745	.0003
298.15	.058	.027	.0003
298.15	.944	.02046	.0003
298.15	.945	.02047	.0003
298.15	.959	.02043	.0003
298.15	.975	.02036	.0003
298.15	.984	.02033	.0003
298.15	1	.01985	.0003
318.15	0	.03343	.0003
318.15	.016	.03187	.0003
318.15	.025	.03105	.0003
318.15	.03	.03042	.0003
318.15	.037	.02922	.0003
318.15	.046	.02803	.0003
318.15	.056	.02704	.0003
318.15	.057	.02699	.0003
318.15	.058	.02655	.0003
318.15	.06	.02619	.0003
318.15	.08	.02428	.0003
318.15	.1	.02225	.0003
318.15	.878	.01888	.0003
318.15	.91	.01855	.0003
318.15	.944	.01882	.0003
318.15	.945	.01875	.0003
318.15	.959	.01878	.0003
318.15	.975	.01824	.0003
318.15	.984	.0181	.0003
318.15	1	.01794	.0003

System: N,N-dimethylformamide + n-heptane; phases: Liquid mixture 1, Liquid mixture 2
Fixed: Pressure, kPa = 101
Property: Interfacial tension, N/m (Liquid mixture 1); method: Drop volume
Temperature, K	Interfacial tension, N/m	uncertainty
297.83	.00244	.00002
308	.00193	.00002
317.75	.00134	.00002
328.15	.0007	.00002
297.83	.00244	.00002
308	.00193	.00002

System: N,N-dimethylformamide + n-decane; phases: Liquid
Fixed: Pressure, kPa = 101
Property: Mass density, kg/m3 (Liquid); method: Vibrating tube method
Temperature, K	Mole fraction of n-decane	Mass density, kg/m3	uncertainty
298.15	.008	939.869	.01
298.15	.011	937.865	.01
298.15	.012	937.754	.01
298.15	.014	935.997	.01
298.15	.02	932.672	.01
298.15	.026	929.604	.01
298.15	.027	928.627	.01
298.15	.027	928.403	.01
298.15	.952	729.502	.01
298.15	.956	729.111	.01
298.15	.956	729.084	.01
298.15	.96	728.92	.01
298.15	.965	728.525	.01
298.15	.967	728.316	.01
298.15	.969	728.15	.01
298.15	.973	727.882	.01
298.15	.982	726.924	.01
298.15	1	725.808	.01
318.15	.008	920.158	.01
318.15	.011	918.716	.01
318.15	.012	918.34	.01
318.15	.014	916.657	.01
318.15	.02	913.554	.01
318.15	.026	910.926	.01
318.15	.027	910.315	.01
318.15	.03	908.389	.01
318.15	.925	715.777	.01
318.15	.952	713.975	.01
318.15	.956	713.547	.01
318.15	.956	713.589	.01
318.15	.96	713.428	.01
318.15	.965	713.114	.01
318.15	.967	712.779	.01
318.15	.969	712.744	.01
318.15	.973	712.535	.01
318.15	.982	711.547	.01
318.15	.984	711.771	.01
318.15	1	710.486	.01

System: N,N-dimethylformamide + n-decane; phases: Liquid mixture 1, Liquid mixture 2
Property: Mass density, kg/m3 (Liquid mixture 1); method: Vibrating tube method
Temperature, K	Mass density, kg/m3	Mass density, kg/m3	uncertainty
298.15	926.81	731.66	.01
298.68	926.07	731.37	.01
305.65	916.16	727.15	.01
313.15	905.72	722.45	.01
320.65	894.2	719.66	.01
328.15	882.61	718.11	.01

System: N,N-dimethylformamide + n-decane; phases: Liquid, Air at 1 atmosphere
Property: Interfacial tension, N/m (Liquid); method: Drop volume
Temperature, K	Mole fraction of n-decane	Interfacial tension, N/m	uncertainty
298.15	.008	.03349	.0003
298.15	.011	.03306	.0003
298.15	.014	.03221	.0003
298.15	.02	.03046	.0003
298.15	.026	.02936	.0003
298.15	.956	.02314	.0003
298.15	.96	.0231	.0003
298.15	.967	.02329	.0003
298.15	.969	.0231	.0003
298.15	.973	.02306	.0003
298.15	.982	.02302	.0003
298.15	1	.02341	.0003
318.15	.011	.03124	.0003
318.15	.012	.03103	.0003
318.15	.014	.03049	.0003
318.15	.02	.02901	.0003
318.15	.03	.02715	.0003
318.15	.956	.02167	.0003
318.15	.96	.0218	.0003
318.15	.967	.02176	.0003
318.15	.969	.02165	.0003
318.15	.984	.0216	.0003
318.15	1	.02158	.0003

System: N,N-dimethylformamide + n-decane; phases: Liquid mixture 1, Liquid mixture 2
Fixed: Pressure, kPa = 101
Property: Interfacial tension, N/m (Liquid mixture 1); method: Drop volume
Temperature, K	Interfacial tension, N/m	uncertainty
298.15	.00335	.00002
298.68	.00331	.00002
305.65	.00288	.00002
313.15	.00253	.00002
320.65	.00208	.00002
328.15	.00162	.00002

System: N,N-dimethylformamide + n-dodecane; phases: Liquid
Fixed: Pressure, kPa = 101
Property: Mass density, kg/m3 (Liquid); method: Vibrating tube method
Temperature, K	Mole fraction of n-dodecane	Mass density, kg/m3	uncertainty
298.15	.003	941.582	.01
298.15	.006	940.185	.01
298.15	.011	937.264	.01
298.15	.012	936.52	.01
298.15	.014	935.638	.01
298.15	.016	934.381	.01
298.15	.955	747.519	.01
298.15	.966	746.96	.01
298.15	.967	746.889	.01
298.15	.974	746.509	.01
298.15	.985	745.932	.01
298.15	.987	745.781	.01
298.15	1	745.089	.01
318.15	.011	918.148	.01
318.15	.012	917.482	.01
318.15	.014	916.528	.01
318.15	.016	915.279	.01
318.15	.018	914.256	.01
318.15	.018	914.279	.01
318.15	.943	733.373	.01
318.15	.955	732.701	.01
318.15	.966	732.14	.01
318.15	.967	732.108	.01
318.15	.974	731.696	.01
318.15	.981	731.386	.01
318.15	.985	731.199	.01
318.15	.987	731.084	.01
318.15	1	730.526	.01

System: N,N-dimethylformamide + n-dodecane; phases: Liquid mixture 1, Liquid mixture 2
Property: Mass density, kg/m3 (Liquid mixture 1); method: Vibrating tube method
Temperature, K	Mass density, kg/m3	Mass density, kg/m3	uncertainty
298.15	933	749.19	.01
305.65	923.74	744.56	.01
308.17	920.35	743.29	.01
313.15	913.91	740.49	.01
315.15	911.3	739.34	.01
320.65	903.82	736.6	.01
323.18	901.47	735.17	.01
328.15	896.95	732.33	.01

System: N,N-dimethylformamide + n-dodecane; phases: Liquid, Air at 1 atmosphere
Property: Interfacial tension, N/m (Liquid); method: Drop volume
Temperature, K	Mole fraction of n-dodecane	Interfacial tension, N/m	uncertainty
298.15	.008	.03335	.0003
298.15	.011	.03221	.0003
298.15	.012	.03163	.0003
298.15	.014	.03099	.0003
298.15	.016	.02982	.0003
298.15	.955	.02442	.0003
298.15	.966	.02482	.0003
298.15	.967	.02478	.0003
298.15	.974	.02483	.0003
298.15	.987	.0248	.0003
298.15	1	.02438	.0003
318.15	.011	.03084	.0003
318.15	.012	.03053	.0003
318.15	.014	.03021	.0003
318.15	.016	.02954	.0003
318.15	.018	.02898	.0003
318.15	.018	.02879	.0003
318.15	.955	.02302	.0003
318.15	.966	.02321	.0003
318.15	.967	.02311	.0003
318.15	.974	.02304	.0003
318.15	.987	.0231	.0003
318.15	1	.02297	.0003

System: N,N-dimethylformamide + n-dodecane; phases: Liquid mixture 1, Liquid mixture 2
Fixed: Pressure, kPa = 101
Property: Interfacial tension, N/m (Liquid mixture 1); method: Drop volume
Temperature, K	Interfacial tension, N/m	uncertainty
298.15	.00369	.00002
305.65	.00338	.00002
308.17	.00315	.00002
313.15	.0029	.00002
315.15	.00279	.00002
320.65	.00244	.00002
323.18	.00236	.00002
328.15	.0021	.00002
