Measured thermophysical data. Liquid liquid equilibria for acetophenone + n-alkane mixtures and characterization of acetophenone systems using DISQUAC
Source: Fluid Phase Equilib., 2015, 10.1016/j.fluid.2015.01.026
Compound 1: acetophenone, C8H8O, purity 99%
Compound 2: decane, C10H22, purity 99%
Compound 3: dodecane, C12H26, purity 98%
Compound 4: tetradecane, C14H30, purity 99%
Compound 5: hexadecane, C16H34, purity 99%

System: acetophenone; phases: Liquid
Fixed: Pressure, kPa = 101.325
Property: Mass density, kg/m3 (Liquid); method: Vibrating tube method
Temperature, K	Mass density, kg/m3	uncertainty
298.15	1023.048	.02

System: decane; phases: Liquid
Fixed: Pressure, kPa = 101.325
Property: Mass density, kg/m3 (Liquid); method: Vibrating tube method
Temperature, K	Mass density, kg/m3	uncertainty
298.15	726.347	.02

System: dodecane; phases: Liquid
Fixed: Pressure, kPa = 101.325
Property: Mass density, kg/m3 (Liquid); method: Vibrating tube method
Temperature, K	Mass density, kg/m3	uncertainty
298.15	741.523	.02

System: tetradecane; phases: Liquid
Fixed: Pressure, kPa = 101.325
Property: Mass density, kg/m3 (Liquid); method: Vibrating tube method
Temperature, K	Mass density, kg/m3	uncertainty
298.15	759.275	.02

System: hexadecane; phases: Liquid
Fixed: Pressure, kPa = 101.325
Property: Mass density, kg/m3 (Liquid); method: Vibrating tube method
Temperature, K	Mass density, kg/m3	uncertainty
298.15	770.221	.02

System: acetophenone + decane; phases: Liquid mixture 1, Liquid mixture 2
Fixed: Pressure, kPa = 100
Property: Liquid-liquid equilibrium temperature, K (Liquid mixture 1); method: Visual observation
Mole fraction of acetophenone	Liquid-liquid equilibrium temperature, K	uncertainty
.3553	274.58	.05
.3724	275.12	.05
.3789	275.45	.05
.4159	276.41	.05
.4459	276.99	.05
.4476	277	.05
.4765	277.2	.05
.5116	277.31	.05
.5158	277.35	.05
.5279	277.38	.05
.5586	277.38	.05
.5785	277.4	.05
.5968	277.37	.05
.6156	277.21	.05
.6173	277.25	.05
.6393	277.07	.05
.6571	276.88	.05
.6784	276.55	.05
.6978	276.12	.05
.7157	275.53	.05
.7356	274.7	.05
.7475	273.97	.05

System: acetophenone + dodecane; phases: Liquid mixture 1, Liquid mixture 2
Fixed: Pressure, kPa = 100
Property: Liquid-liquid equilibrium temperature, K (Liquid mixture 1); method: Visual observation
Mole fraction of acetophenone	Liquid-liquid equilibrium temperature, K	uncertainty
.4002	280.44	.05
.4346	281.68	.05
.4455	282.17	.05
.4795	282.77	.05
.5097	283.26	.05
.5133	283.25	.05
.519	283.3	.05
.53	283.44	.05
.5338	283.46	.05
.5675	283.53	.05
.5782	283.5	.05
.6162	283.55	.05
.6372	283.59	.05
.6472	283.6	.05
.6511	283.54	.05
.6754	283.49	.05
.699	283.15	.05
.7164	282.92	.05
.7456	282.41	.05
.7721	281.24	.05
.7993	279.7	.05
.8211	278.12	.05

System: acetophenone + tetradecane; phases: Liquid mixture 1, Liquid mixture 2
Fixed: Pressure, kPa = 100
Property: Liquid-liquid equilibrium temperature, K (Liquid mixture 1); method: Visual observation
Mole fraction of acetophenone	Liquid-liquid equilibrium temperature, K	uncertainty
.3915	282.89	.05
.3939	283.16	.05
.3979	283.42	.05
.4492	286.04	.05
.457	286.3	.05
.4738	286.97	.05
.4765	286.91	.05
.5026	288.16	.05
.5323	288.92	.05
.5545	289.34	.05
.5789	289.53	.05
.6033	289.7	.05
.64	289.86	.05
.6519	289.91	.05
.6748	289.91	.05
.7049	289.81	.05
.7288	289.6	.05
.7538	289.23	.05
.7802	288.66	.05
.7941	288.15	.05
.8188	286.88	.05

System: acetophenone + hexadecane; phases: Liquid mixture 1, Liquid mixture 2
Fixed: Pressure, kPa = 100
Property: Liquid-liquid equilibrium temperature, K (Liquid mixture 1); method: Visual observation
Mole fraction of acetophenone	Liquid-liquid equilibrium temperature, K	uncertainty
.4141	287.75	.05
.443	289.39	.05
.4642	290.63	.05
.4749	291.1	.05
.4853	291.51	.05
.4856	291.54	.05
.4998	292.04	.05
.5192	292.9	.05
.5429	293.63	.05
.5581	294.13	.05
.5752	294.47	.05
.604	294.9	.05
.6223	295.15	.05
.6347	295.23	.05
.6562	295.39	.05
.6674	295.38	.05
.699	295.51	.05
.7166	295.49	.05
.7223	295.49	.05
.7401	295.39	.05
.7667	295.29	.05
.7916	294.93	.05
.8017	294.71	.05
