Measured thermophysical data. High pressure phase behavior for binary mixture of 2-ethoxyethyl methacrylate and 2,3-epoxypropyl methacrylate in supercritical carbon dioxide
Source: Fluid Phase Equilib., 2013, 10.1016/j.fluid.2012.09.004
Compound 1: 2-Ethoxyethyl methacrylate, C8H14O3, purity 98%
Compound 2: methacrylic acid, 2,3-epoxypropyl ester, C7H10O3, purity 98%
Compound 3: carbon dioxide, CO2, purity 99.8%

System: carbon dioxide + 2-Ethoxyethyl methacrylate; phases: Gas, Liquid
Property: Vapor or sublimation pressure, kPa (Gas); method: Closed cell (Static) method
Temperature, K	Mole fraction of 2-Ethoxyethyl methacrylate	Vapor or sublimation pressure, kPa	uncertainty
313.2	.046	8930	30
313.2	.073	8970	30
313.2	.098	8860	30
313.2	.129	8590	30
313.2	.155	8240	30
313.2	.198	8170	30
313.2	.245	8070	30
313.2	.284	7310	30
313.2	.35	6660	30
313.2	.403	6380	30
313.2	.448	5860	30
313.2	.502	5280	30
313.2	.566	4910	30
333.2	.046	12280	30
333.2	.073	12450	30
333.2	.098	12070	30
333.2	.129	11660	30
333.2	.155	11350	30
333.2	.198	10760	30
333.2	.245	10240	30
333.2	.284	9280	30
333.2	.35	8590	30
333.2	.403	7900	30
333.2	.448	7140	30
333.2	.502	6550	30
333.2	.566	6010	30
353.2	.046	15240	30
353.2	.073	15620	30
353.2	.098	15210	30
353.2	.129	14720	30
353.2	.155	14380	30
353.2	.198	13280	30
353.2	.245	12660	30
353.2	.284	11450	30
353.2	.35	10240	30
353.2	.403	9345	30
353.2	.448	8450	30
353.2	.502	7620	30
353.2	.566	7000	30
373.2	.046	16480	30
373.2	.073	17140	30
373.2	.098	17210	30
373.2	.129	17140	30
373.2	.155	17000	30
373.2	.198	16000	30
373.2	.245	14790	30
373.2	.284	13960	30
373.2	.35	12100	30
373.2	.403	10790	30
373.2	.448	9760	30
373.2	.502	8720	30
373.2	.566	8030	30
393.2	.046	17690	30
393.2	.073	18660	30
393.2	.098	19390	30
393.2	.129	19000	30
393.2	.155	18790	30
393.2	.198	18100	30
393.2	.245	17140	30
393.2	.284	15900	30
393.2	.35	13830	30
393.2	.403	12140	30
393.2	.448	10930	30
393.2	.502	9970	30
393.2	.566	8860	30

System: methacrylic acid, 2,3-epoxypropyl ester + carbon dioxide; phases: Gas, Liquid
Property: Vapor or sublimation pressure, kPa (Gas); method: Closed cell (Static) method
Temperature, K	Mole fraction of methacrylic acid, 2,3-epoxypropyl ester	Vapor or sublimation pressure, kPa	uncertainty
313.2	.05	9210	30
313.2	.08	9140	30
313.2	.11	8860	30
313.2	.156	8720	30
313.2	.196	8580	30
313.2	.255	8250	30
313.2	.303	8040	30
313.2	.393	7420	30
313.2	.449	7010	30
313.2	.55	6360	30
313.2	.626	5970	30
313.2	.665	5830	30
333.2	.05	12450	30
333.2	.08	12860	30
333.2	.11	12790	30
333.2	.156	12170	30
333.2	.196	11590	30
333.2	.255	11070	30
333.2	.303	10660	30
333.2	.393	9410	30
333.2	.449	8660	30
333.2	.55	7620	30
333.2	.626	7010	30
333.2	.665	6520	30
353.2	.05	15760	30
353.2	.08	16310	30
353.2	.11	16350	30
353.2	.156	15900	30
353.2	.196	14970	30
353.2	.255	13830	30
353.2	.303	13240	30
353.2	.393	11350	30
353.2	.449	10240	30
353.2	.55	8860	30
353.2	.626	7900	30
353.2	.665	7100	30
373.2	.05	18100	30
373.2	.08	18860	30
373.2	.11	19210	30
373.2	.156	18790	30
373.2	.196	18310	30
373.2	.255	17210	30
373.2	.303	16030	30
373.2	.393	13410	30
373.2	.449	11900	30
373.2	.55	9970	30
373.2	.626	8790	30
373.2	.665	7830	30
393.2	.05	19900	30
393.2	.08	21210	30
393.2	.11	21280	30
393.2	.156	21210	30
393.2	.196	20520	30
393.2	.255	19760	30
393.2	.303	18520	30
393.2	.393	15620	30
393.2	.449	13550	30
393.2	.55	11000	30
393.2	.626	9690	30
393.2	.665	8550	30
