Measured thermophysical data. VLE properties of CO2 - based binary systems containing N2, O2 and Ar: Experimental measurements and modelling results with advanced cubic equations of state
Source: Fluid Phase Equilib., 2016, 10.1016/j.fluid.2016.05.015
Compound 1: nitrogen, N2, purity 99.999%
Compound 2: carbon dioxide, CO2, purity 99.998%
Compound 3: oxygen, O2, purity 99.999%
Compound 4: argon, Ar, purity 99.999%

System: carbon dioxide + nitrogen; phases: Gas, Liquid
Property: Mole fraction of nitrogen (Gas); method: Chromatography
Mole fraction of nitrogen	Temperature, K	Mole fraction of nitrogen	uncertainty
0	293.1	0	
.0068	293.1	.0274	
.0183	293.1	.0664	
.0298	293.1	.0978	
.0424	293.1	.1199	
.1132	293.1	.1219	
.0995	293.1	.1339	
.0943	293.1	.1399	
.0823	293.1	.1461	
.0778	293.1	.1466	
.0772	293.1	.1466	
0	273.08	0	
.0159	273.08	.1378	
.0297	273.08	.2143	
.0411	273.08	.2612	
.0609	273.08	.3209	
.0786	273.08	.3554	
.0978	273.08	.3758	
.119	273.08	.3903	
.1477	273.08	.3914	
.1614	273.08	.3879	
.1875	273.08	.3724	
.2068	273.08	.355	
.2531	273.08	.2727	
.2268	273.08	.3343	
0	253.05	0	
.0106	253.05	.2048	
.0217	253.05	.3019	
.0436	253.05	.4638	
.0647	253.05	.5319	
.1077	253.05	.5854	
.1497	253.05	.5979	
.1801	253.05	.5898	
.057	253.05	.5042	
.0861	253.05	.5644	
.1267	253.05	.5949	
.2015	253.05	.5826	
.2431	253.05	.5537	
.2971	253.05	.4973	
.2972	253.05	.4971	
0	238.06	0	
.0246	238.06	.5181	
.0408	238.06	.6016	
.058	238.06	.6533	
.077	238.06	.6793	
.093	238.06	.6994	
.1268	238.06	.7081	
.1575	238.06	.7113	
.1953	238.06	.703	
.234	238.06	.6833	
.2869	238.06	.6478	
.3412	238.06	.6056	
.3767	238.06	.5655	
0	223.1	0	
.0257	223.1	.7076	
.0522	223.1	.7774	
.093	223.1	.8077	
.1261	223.1	.8131	
.1584	223.1	.8057	
.1982	223.1	.7843	
.238	223.1	.7533	
.2813	223.1	.715	
.3064	223.1	.6942	

System: carbon dioxide + nitrogen; phases: Gas, Liquid
Property: Vapor or sublimation pressure, kPa (Gas); method: Closed cell (Static) method
Mole fraction of nitrogen	Temperature, K	Vapor or sublimation pressure, kPa	uncertainty
0	293.1	5731	
.0068	293.1	5983	
.0183	293.1	6486.4	
.0298	293.1	6977.2	
.0424	293.1	7473.7	
.1132	293.1	8986.9	
.0995	293.1	8919.8	
.0943	293.1	8885.3	
.0823	293.1	8696.2	
.0778	293.1	8594.2	
.0772	293.1	8586.8	
0	273.08	3489	
.0159	273.08	4266.7	
.0297	273.08	4954.7	
.0411	273.08	5523.8	
.0609	273.08	6506.9	
.0786	273.08	7339.5	
.0978	273.08	8106.1	
.119	273.08	9070.6	
.1477	273.08	10096.6	
.1614	273.08	10480.6	
.1875	273.08	11084.6	
.2068	273.08	11410.5	
.2531	273.08	11802	
.2268	273.08	11629.5	
0	253.05	1972	
.0106	253.05	2575.4	
.0217	253.05	3047.9	
.0436	253.05	4535.2	
.0647	253.05	5818.8	
.1077	253.05	7831.5	
.1497	253.05	9827.6	
.1801	253.05	10924.1	
.057	253.05	5134.3	
.0861	253.05	6759.4	
.1267	253.05	8688.3	
.2015	253.05	11661.4	
.2431	253.05	12987.3	
.2971	253.05	13916.1	
.2972	253.05	13926.1	
0	238.06	1204	
.0246	238.06	2949.9	
.0408	238.06	3903.9	
.058	238.06	4971	
.077	238.06	5883.5	
.093	238.06	6902.7	
.1268	238.06	8537	
.1575	238.06	9959.3	
.1953	238.06	11445	
.234	238.06	12919.1	
.2869	238.06	14387.6	
.3412	238.06	15481.1	
.3767	238.06	15920.6	
0	223.1	688	
.0257	223.1	2798.3	
.0522	223.1	4491.8	
.093	223.1	6490.6	
.1261	223.1	8479.9	
.1584	223.1	10441	
.1982	223.1	12578.2	
.238	223.1	14428.7	
.2813	223.1	15901.5	
.3064	223.1	16534.7	

System: carbon dioxide + oxygen; phases: Gas, Liquid
Property: Mole fraction of oxygen (Gas); method: Chromatography
Mole fraction of oxygen	Temperature, K	Mole fraction of oxygen	uncertainty
0	293.08	0	
.0116	293.08	.0341	
.0284	293.08	.0821	
.0161	293.08	.0529	
.0448	293.08	.1128	
.0639	293.08	.1361	
.0822	293.08	.1462	
.0969	293.08	.1457	
.1062	293.08	.1445	
0	273.09	0	
.0031	273.09	.0438	
.0105	273.09	.1028	
.0291	273.09	.2047	
.0463	273.09	.2613	
.1811	273.09	.3973	
.2066	273.09	.391	
.2274	273.09	.3836	
.2334	273.09	.3788	
.2357	273.09	.3772	
.2444	273.09	.3711	
.2489	273.09	.368	
.2531	273.09	.3643	
.2586	273.09	.3608	
.2683	273.09	.3475	
.286	273.09	.3315	
.1477	273.09	.3901	
.1303	273.09	.3825	
.1025	273.09	.3605	
.0756	273.09	.3201	
0	253.12	0	
.0136	253.12	.2133	
.0251	253.12	.3048	
.0371	253.12	.3815	
.051	253.12	.4453	
.0707	253.12	.4892	
.0875	253.12	.5229	
.103	253.12	.5452	
.1276	253.12	.5699	
.1595	253.12	.5833	
.188	253.12	.5903	
.2252	253.12	.5912	
.2653	253.12	.5804	
.3162	253.12	.5544	
.344	253.12	.5353	
.3718	253.12	.5093	
.3902	253.12	.4955	
0	238.11	0	
.0204	238.11	.4475	
.0308	238.11	.519	
.0441	238.11	.569	
.0549	238.11	.6024	
.0788	238.11	.6531	
.1005	238.11	.6799	
.1289	238.11	.7	
.1591	238.11	.7124	
.1898	238.11	.7154	
.222	238.11	.7152	
.2572	238.11	.7085	
.3054	238.11	.6903	
.3526	238.11	.6664	
0	223.17	0	
.0179	223.17	.5437	
.0443	223.17	.7014	
.08	223.17	.77	
.1135	223.17	.794	
.1544	223.17	.8065	
.2018	223.17	.8076	
.253	223.17	.797	
.3059	223.17	.7784	
.3571	223.17	.7526	
.4004	223.17	.7191	
.4499	223.17	.6959	

System: carbon dioxide + oxygen; phases: Gas, Liquid
Property: Vapor or sublimation pressure, kPa (Gas); method: Closed cell (Static) method
Mole fraction of oxygen	Temperature, K	Vapor or sublimation pressure, kPa	uncertainty
0	293.08	5721	
.0116	293.08	6125	
.0284	293.08	6776.4	
.0161	293.08	6319.6	
.0448	293.08	7362.6	
.0639	293.08	7971.8	
.0822	293.08	8438.8	
.0969	293.08	8735.9	
.1062	293.08	8892.8	
0	273.09	3489	
.0031	273.09	3678.2	
.0105	273.09	4087.2	
.0291	273.09	4980.2	
.0463	273.09	5674.8	
.1811	273.09	9965.3	
.2066	273.09	10570.8	
.2274	273.09	10944.3	
.2334	273.09	11053.5	
.2357	273.09	11090.1	
.2444	273.09	11197.4	
.2489	273.09	11248.8	
.2531	273.09	11296.7	
.2586	273.09	11350.8	
.2683	273.09	11426.8	
.286	273.09	11499.2	
.1477	273.09	9078.2	
.1303	273.09	8520	
.1025	273.09	7658.2	
.0756	273.09	6660.2	
0	253.12	1974	
.0136	253.12	2688.2	
.0251	253.12	3204	
.0371	253.12	3806.5	
.051	253.12	4512.6	
.0707	253.12	5208	
.0875	253.12	5873.3	
.103	253.12	6477.5	
.1276	253.12	7372.6	
.1595	253.12	8477.9	
.188	253.12	9406	
.2252	253.12	10470.7	
.2653	253.12	11433	
.3162	253.12	12423.7	
.344	253.12	12782.7	
.3718	253.12	13069.5	
.3902	253.12	13179.9	
0	238.11	1205	
.0204	238.11	2494.6	
.0308	238.11	3004	
.0441	238.11	3530.4	
.0549	238.11	3971.7	
.0788	238.11	4967.7	
.1005	238.11	5939.4	
.1289	238.11	6954.3	
.1591	238.11	7900.1	
.1898	238.11	8934.9	
.222	238.11	9896.1	
.2572	238.11	10834.5	
.3054	238.11	11970.5	
.3526	238.11	12859	
0	223.17	692	
.0179	223.17	1715.6	
.0443	223.17	2993.8	
.08	223.17	4570.4	
.1135	223.17	5879.3	
.1544	223.17	7387.6	
.2018	223.17	8975	
.253	223.17	10440.5	
.3059	223.17	11727.8	
.3571	223.17	12750.7	
.4004	223.17	13475	
.4499	223.17	13940.2	

System: carbon dioxide + argon; phases: Gas, Liquid
Property: Mole fraction of argon (Gas); method: Chromatography
Mole fraction of argon	Temperature, K	Mole fraction of argon	uncertainty
0	293.07	0	
.0242	293.07	.0723	
.0456	293.07	.1126	
.0602	293.07	.1319	
.0782	293.07	.1459	
.0882	293.07	.1494	
.0989	293.07	.1485	
.1076	293.07	.1457	
0	273.12	0	
.0246	273.12	.1645	
.0361	273.12	.2139	
.0519	273.12	.2678	
.0698	273.12	.3141	
.0956	273.12	.3534	
.1246	273.12	.3799	
.1565	273.12	.3905	
.1961	273.12	.3914	
.2213	273.12	.3796	
.2428	273.12	.3698	
.2563	273.12	.3609	
.2729	273.12	.345	
.2901	273.12	.2935	
0	253.04	0	
.0155	253.04	.2459	
.0306	253.04	.3503	
.0491	253.04	.4285	
.0636	253.04	.4729	
.0869	253.04	.5236	
.1109	253.04	.5604	
.1362	253.04	.5805	
.1646	253.04	.5943	
.195	253.04	.5967	
.2298	253.04	.5931	
.2725	253.04	.5812	
.3042	253.04	.5595	
.3144	253.04	.554	
.3284	253.04	.544	
.3352	253.04	.5368	
.3428	253.04	.5263	
0	238.03	0	
.0115	238.03	.3219	
.0321	238.03	.5105	
.0538	238.03	.5927	
.0778	238.03	.6467	
.0987	238.03	.6787	
.1248	238.03	.698	
.1547	238.03	.7106	
.1796	238.03	.7157	
.2099	238.03	.7153	
.2445	238.03	.707	
.2792	238.03	.6971	
.3304	238.03	.6731	
.363	238.03	.6522	
.379	238.03	.6417	
.3904	238.03	.6346	
.4072	238.03	.6203	
.4254	238.03	.6021	
0	223.07	0	
.0197	223.07	.5685	
.0366	223.07	.6878	
.0576	223.07	.75	
.0799	223.07	.7744	
.105	223.07	.793	
.129	223.07	.8048	
.1595	223.07	.8089	
.1992	223.07	.807	
.2347	223.07	.8004	
.2816	223.07	.786	
.3396	223.07	.7565	
.4086	223.07	.6987	
.4557	223.07	.6574	

System: carbon dioxide + argon; phases: Gas, Liquid
Property: Vapor or sublimation pressure, kPa (Gas); method: Closed cell (Static) method
Mole fraction of argon	Temperature, K	Vapor or sublimation pressure, kPa	uncertainty
0	293.07	5719	
.0242	293.07	6618.1	
.0456	293.07	7373.6	
.0602	293.07	7842.5	
.0782	293.07	8339.6	
.0882	293.07	8572.1	
.0989	293.07	8778.5	
.1076	293.07	8908.8	
0	273.12	3491	
.0246	273.12	4574.6	
.0361	273.12	5067.8	
.0519	273.12	5737.9	
.0698	273.12	6503.1	
.0956	273.12	7430.9	
.1246	273.12	8443.8	
.1565	273.12	9386.9	
.1961	273.12	10394.3	
.2213	273.12	10949.7	
.2428	273.12	11206.4	
.2563	273.12	11364.8	
.2729	273.12	11485.2	
.2901	273.12	11587.4	
0	253.04	1969	
.0155	253.04	2844	
.0306	253.04	3517.7	
.0491	253.04	4292.8	
.0636	253.04	4918.7	
.0869	253.04	5889.8	
.1109	253.04	6858.6	
.1362	253.04	7781.8	
.1646	253.04	8746.5	
.195	253.04	9740.8	
.2298	253.04	10783.3	
.2725	253.04	11747.9	
.3042	253.04	12405.7	
.3144	253.04	12592.2	
.3284	253.04	12784.7	
.3352	253.04	12884	
.3428	253.04	12989.3	
0	238.03	1204	
.0115	238.03	1918.2	
.0321	238.03	2982.2	
.0538	238.03	3884.8	
.0778	238.03	4911.1	
.0987	238.03	5945.8	
.1248	238.03	6856.6	
.1547	238.03	7944.4	
.1796	238.03	8824.7	
.2099	238.03	9837	
.2445	238.03	10826	
.2792	238.03	11663.6	
.3304	238.03	12830	
.363	238.03	13336.4	
.379	238.03	13556.6	
.3904	238.03	13720	
.4072	238.03	13912.1	
.4254	238.03	14061	
0	223.07	689	
.0197	223.07	1894.5	
.0366	223.07	2863.9	
.0576	223.07	3989.9	
.0799	223.07	4872	
.105	223.07	5857	
.129	223.07	6886.6	
.1595	223.07	7920	
.1992	223.07	9317.8	
.2347	223.07	10396.4	
.2816	223.07	11653.6	
.3396	223.07	12959.3	
.4086	223.07	14062.6	
.4557	223.07	14552.1	
