Measured thermophysical data. Phase equilibrium measurements for systems containing propanenitrile with tert-butyl ethyl ether and C4-hydrocarbons
Source: Fluid Phase Equilib., 2010, 10.1016/j.fluid.2010.09.023
Compound 1: helium, He, purity 99.994%
Compound 2: hydrogen, H2, purity 99.999%
Compound 3: propanenitrile, C3H5N, purity 99.95%
Compound 4: ethyl 1,1-dimethylethyl ether, C6H14O, purity 99%
Compound 5: butane, C4H10, purity 99.95%
Compound 6: 1-butene, C4H8, purity 99.4%
Compound 7: 2-methylpropane, C4H10, purity 99.95%
Compound 8: 2-methylpropene, C4H8, purity 99.9%
Compound 9: toluene, C7H8, purity 99.7%

System: propanenitrile; phases: Liquid, Gas
Property: Vapor or sublimation pressure, kPa (Liquid); method: Closed cell (Static) method
Temperature, K	Vapor or sublimation pressure, kPa	uncertainty
312.5	11.9	1.4
312.58	11.9	1.4
322	17.4	1.4
307.78	9.47	1.4
313.15	12.5	1.4
358.33	69.6	1.4

System: propanenitrile; phases: Liquid, Gas
Property: Vapor or sublimation pressure, kPa (Liquid); method: Ebulliometric method (Recirculating still)
Temperature, K	Vapor or sublimation pressure, kPa	uncertainty
313.15	12.72	.14
339.57	36.51	.14
353.83	60.04	.14
358.37	69.81	.14
364.8	85.5	.14
370.9	103.12	.14

System: ethyl 1,1-dimethylethyl ether; phases: Liquid, Gas
Property: Vapor or sublimation pressure, kPa (Liquid); method: Closed cell (Static) method
Temperature, K	Vapor or sublimation pressure, kPa	uncertainty
312.84	31.9	1.4
358.31	147.9	1.4

System: ethyl 1,1-dimethylethyl ether; phases: Liquid, Gas
Property: Vapor or sublimation pressure, kPa (Liquid); method: Ebulliometric method (Recirculating still)
Temperature, K	Vapor or sublimation pressure, kPa	uncertainty
346.26	102.08	.14
343.01	92	.14
338.77	80.14	.14
330.44	60.25	.14
312.83	30.95	.14

System: butane; phases: Liquid, Gas
Property: Vapor or sublimation pressure, kPa (Liquid); method: Closed cell (Static) method
Temperature, K	Vapor or sublimation pressure, kPa	uncertainty
322.01	479.5	1.4

System: 1-butene; phases: Liquid, Gas
Property: Vapor or sublimation pressure, kPa (Liquid); method: Closed cell (Static) method
Temperature, K	Vapor or sublimation pressure, kPa	uncertainty
312.59	448.3	1.4

System: 2-methylpropane; phases: Liquid, Gas
Property: Vapor or sublimation pressure, kPa (Liquid); method: Closed cell (Static) method
Temperature, K	Vapor or sublimation pressure, kPa	uncertainty
307.79	460.8	1.4

System: 2-methylpropene; phases: Liquid, Gas
Property: Vapor or sublimation pressure, kPa (Liquid); method: Closed cell (Static) method
Temperature, K	Vapor or sublimation pressure, kPa	uncertainty
312.59	467.1	1.4

System: butane + propanenitrile; phases: Gas, Liquid
Property: Vapor or sublimation pressure, kPa (Gas); method: Closed cell (Static) method
Mole fraction of butane	Temperature, K	Vapor or sublimation pressure, kPa	uncertainty
1	322.01	479.5	.7
.9878	322.01	477.8	.7
.9682	322.02	474.4	.7
.9491	322.02	470.5	.7
.9002	322.01	462.6	.7
.8516	322.01	456.8	.7
.8026	322.01	452	.7
.7534	322	447.3	.7
.7037	322	443.5	.7
.654	322	439.9	.7
.6053	322	436.4	.7
.5569	322	431.8	.7
.5068	322	426.5	.7
.4985	322.05	425.4	.7
.4481	322.03	417.8	.7
.3974	322.03	408	.7
.3466	322.02	394.8	.7
.2952	322.02	376.5	.7
.2445	322.02	351.4	.7
.195	322.02	317.4	.7
.1464	322.02	271.7	.7
.1012	322.02	215.1	.7
.0541	322.02	137.1	.7
.0377	322.01	104.8	.7
0	322	17.4	.7

System: butane + propanenitrile; phases: Gas, Liquid
Property: Mole fraction of butane (Gas); method: Barkers Method
Mole fraction of butane	Temperature, K	Mole fraction of butane	uncertainty
1	322.01	1	0
.9878	322.01	.9931	.0007
.9682	322.02	.9852	.001
.9491	322.02	.98	.0011
.9002	322.01	.9729	.0013
.8516	322.01	.9698	.0014
.8026	322.01	.9682	.0015
.7534	322	.9671	.0016
.7037	322	.9662	.0016
.654	322	.9653	.0016
.6053	322	.9644	.0017
.5569	322	.9636	.0017
.5068	322	.9627	.0017
.4985	322.05	.9625	.0017
.4481	322.03	.9614	.0017
.3974	322.03	.9601	.0018
.3466	322.02	.9583	.0018
.2952	322.02	.9557	.0019
.2445	322.02	.952	.0021
.195	322.02	.9462	.0023
.1464	322.02	.9364	.0026
.1012	322.02	.9191	.0032
.0541	322.02	.8728	.0046
.0377	322.01	.8335	.0059
0	322	0	0

System: 1-butene + propanenitrile; phases: Gas, Liquid
Property: Vapor or sublimation pressure, kPa (Gas); method: Closed cell (Static) method
Mole fraction of 1-butene	Temperature, K	Vapor or sublimation pressure, kPa	uncertainty
1	312.59	448.3	.7
.9904	312.59	445.7	.7
.9698	312.59	439.6	.7
.9489	312.59	434.3	.7
.8991	312.59	423.5	.7
.8481	312.58	414.3	.7
.7974	312.59	406	.7
.7482	312.59	398.3	.7
.699	312.59	390.6	.7
.6484	312.59	382.2	.7
.5991	312.59	373.5	.7
.5494	312.59	363.7	.7
.4994	312.59	352.5	.7
.4997	312.52	353.6	.7
.448	312.51	339.6	.7
.3988	312.51	323.9	.7
.3476	312.51	304.3	.7
.2975	312.51	281.4	.7
.2459	312.51	252.9	.7
.1963	312.51	219.8	.7
.1465	312.51	179.9	.7
.0976	312.51	133.1	.7
.0499	312.51	78.9	.7
.0351	312.51	60.1	.7
.0074	312.51	22.7	.7
0	312.5	11.9	.7

System: 1-butene + propanenitrile; phases: Gas, Liquid
Property: Mole fraction of 1-butene (Gas); method: Barkers Method
Mole fraction of 1-butene	Temperature, K	Mole fraction of 1-butene	uncertainty
1	312.59	1	0
.9904	312.59	.9974	.0004
.9698	312.59	.9932	.0008
.9489	312.59	.9901	.0009
.8991	312.59	.9857	.001
.8481	312.58	.9832	.0011
.7974	312.59	.9815	.0012
.7482	312.59	.9801	.0014
.699	312.59	.9788	.0015
.6484	312.59	.9775	.0017
.5991	312.59	.9761	.0017
.5494	312.59	.9747	.0018
.4994	312.59	.9732	.0018
.4997	312.52	.9732	.0018
.448	312.51	.9713	.0019
.3988	312.51	.9692	.0019
.3476	312.51	.9665	.0021
.2975	312.51	.9629	.0023
.2459	312.51	.9576	.0027
.1963	312.51	.95	.0032
.1465	312.51	.9374	.0039
.0976	312.51	.9136	.0051
.0499	312.51	.8516	.008
.0351	312.51	.8047	.0103
.0074	312.51	.4766	.0202
0	312.5	0	0

System: propanenitrile + 2-methylpropene; phases: Gas, Liquid
Property: Vapor or sublimation pressure, kPa (Gas); method: Closed cell (Static) method
Mole fraction of 2-methylpropene	Temperature, K	Vapor or sublimation pressure, kPa	uncertainty
1	312.59	467.1	.7
.9932	312.59	464.2	.7
.9711	312.59	456.5	.7
.949	312.59	449.9	.7
.9011	312.59	438.1	.7
.849	312.58	427.5	.7
.7988	312.59	418.5	.7
.7486	312.59	410	.7
.6992	312.59	401.6	.7
.6496	312.59	392.9	.7
.599	312.59	383.3	.7
.5496	312.58	373.1	.7
.5002	312.59	361.9	.7
.4983	312.59	360.5	.7
.448	312.59	343.9	.7
.3976	312.59	325.5	.7
.3463	312.59	303.9	.7
.2961	312.59	279.1	.7
.2456	312.59	249.6	.7
.1975	312.59	216.7	.7
.1465	312.59	175.5	.7
.0975	312.59	128.8	.7
.0483	312.59	74.3	.7
.0355	312.59	58.7	.7
.008	312.59	22.7	.7
0	312.58	11.9	.7

System: propanenitrile + 2-methylpropene; phases: Gas, Liquid
Property: Mole fraction of 2-methylpropene (Gas); method: Barkers Method
Mole fraction of 2-methylpropene	Temperature, K	Mole fraction of 2-methylpropene	uncertainty
1	312.59	1	0
.9932	312.59	.9985	.0002
.9711	312.59	.9945	.0005
.949	312.59	.9914	.0007
.9011	312.59	.987	.0011
.849	312.58	.9842	.0013
.7988	312.59	.9825	.0014
.7486	312.59	.9811	.0015
.6992	312.59	.9799	.0015
.6496	312.59	.9787	.0015
.599	312.59	.9774	.0016
.5496	312.58	.976	.0016
.5002	312.59	.9743	.0017
.4983	312.59	.9743	.0017
.448	312.59	.9723	.0018
.3976	312.59	.9698	.002
.3463	312.59	.9667	.0022
.2961	312.59	.9628	.0024
.2456	312.59	.9573	.0028
.1975	312.59	.9496	.0032
.1465	312.59	.9363	.0039
.0975	312.59	.9113	.0049
.0483	312.59	.8426	.0085
.0355	312.59	.7995	.0103
.008	312.59	.4785	.0212
0	312.58	0	0

System: 2-methylpropane + propanenitrile; phases: Gas, Liquid
Property: Vapor or sublimation pressure, kPa (Gas); method: Closed cell (Static) method
Mole fraction of 2-methylpropane	Temperature, K	Vapor or sublimation pressure, kPa	uncertainty
1	307.79	460.8	.7
.9914	307.85	458.4	.7
.9688	307.85	453.1	.7
.9488	307.85	449.3	.7
.8976	307.85	441.5	.7
.8468	307.86	436.2	.7
.7962	307.86	432.2	.7
.7467	307.86	429	.7
.6957	307.86	426.2	.7
.646	307.86	423.5	.7
.5974	307.85	420.9	.7
.5471	307.85	417.9	.7
.4986	307.85	414.3	.7
.4976	307.86	414.4	.7
.4467	307.85	408.9	.7
.3962	307.85	401.3	.7
.3451	307.85	390.5	.7
.2932	307.85	374.3	.7
.2422	307.85	350.9	.7
.1935	307.85	318.5	.7
.1439	307.85	271.6	.7
.0961	307.85	208.7	.7
.05	307.85	127	.7
.0371	307.85	99.9	.7
.0118	307.85	40.4	.7
0	307.78	9.7	.7

System: 2-methylpropane + propanenitrile; phases: Gas, Liquid
Property: Mole fraction of 2-methylpropane (Gas); method: Barkers Method
Mole fraction of 2-methylpropane	Temperature, K	Mole fraction of 2-methylpropane	uncertainty
1	307.79	1	0
.9914	307.85	.9965	.0006
.9688	307.85	.9901	.001
.9488	307.85	.9866	.0012
.8976	307.85	.9822	.0013
.8468	307.86	.9806	.0014
.7962	307.86	.9799	.0015
.7467	307.86	.9795	.0016
.6957	307.86	.9791	.0017
.646	307.86	.9788	.0017
.5974	307.85	.9784	.0018
.5471	307.85	.978	.0018
.4986	307.85	.9776	.0018
.4976	307.86	.9776	.0018
.4467	307.85	.9771	.0017
.3962	307.85	.9765	.0018
.3451	307.85	.9757	.0018
.2932	307.85	.9745	.0019
.2422	307.85	.9725	.0021
.1935	307.85	.9694	.0024
.1439	307.85	.9639	.0028
.0961	307.85	.9528	.0034
.05	307.85	.9228	.0054
.0371	307.85	.9021	.0068
.0118	307.85	.7592	.0148
0	307.78	0	0

System: propanenitrile + ethyl 1,1-dimethylethyl ether; phases: Gas, Liquid
Property: Vapor or sublimation pressure, kPa (Gas); method: Closed cell (Static) method
Mole fraction of propanenitrile	Temperature, K	Vapor or sublimation pressure, kPa	uncertainty
1	312.84	12.5	.6
.9882	312.86	13.6	.6
.9702	312.86	15	.6
.9504	312.86	16.5	.6
.9017	312.86	19.5	.6
.8503	312.86	22	.6
.8014	312.86	23.9	.6
.7513	312.86	25.5	.6
.7016	312.86	26.7	.6
.652	312.86	27.8	.6
.6028	312.86	28.7	.6
.5533	312.86	29.4	.6
.503	312.86	30.1	.6
.4992	312.86	30.6	.6
.4496	312.86	31.1	.6
.3995	312.86	31.6	.6
.3494	312.86	32	.6
.3012	312.86	32.3	.6
.2507	312.86	32.6	.6
.2001	312.86	32.8	.6
.1525	312.86	32.9	.6
.0996	312.86	32.9	.6
.0557	312.86	32.8	.6
.042	312.86	32.6	.6
.0268	312.86	32.4	.6
0	312.84	31.9	.6

System: propanenitrile + ethyl 1,1-dimethylethyl ether; phases: Gas, Liquid
Property: Mole fraction of propanenitrile (Gas); method: Barkers Method
Mole fraction of propanenitrile	Temperature, K	Mole fraction of propanenitrile	uncertainty
1	312.84	1	0
.9882	312.86	.9123	.0058
.9702	312.86	.8095	.0082
.9504	312.86	.7249	.0098
.9017	312.86	.5876	.0119
.8503	312.86	.4999	.0125
.8014	312.86	.4434	.0125
.7513	312.86	.4005	.0122
.7016	312.86	.3672	.0118
.652	312.86	.3395	.0114
.6028	312.86	.3159	.011
.5533	312.86	.2947	.0107
.503	312.86	.275	.0103
.4992	312.86	.2736	.0103
.4496	312.86	.2554	.0098
.3995	312.86	.2377	.0093
.3494	312.86	.2204	.0087
.3012	312.86	.2035	.008
.2507	312.86	.1849	.0069
.2001	312.86	.1642	.0057
.1525	312.86	.1414	.0042
.0996	312.86	.109	.0023
.0557	312.86	.0721	.0019
.042	312.86	.0578	.0019
.0268	312.86	.0395	.0016
0	312.84	0	0

System: propanenitrile + ethyl 1,1-dimethylethyl ether; phases: Gas, Liquid
Property: Vapor or sublimation pressure, kPa (Gas); method: Closed cell (Static) method
Mole fraction of propanenitrile	Temperature, K	Vapor or sublimation pressure, kPa	uncertainty
1	358.33	69.6	.6
.9899	358.32	73.8	.6
.9702	358.31	80.2	.6
.9518	358.32	85.9	.6
.901	358.32	99	.6
.8517	358.33	109	.6
.8031	358.33	117	.6
.7528	358.33	123.9	.6
.7025	358.32	129.4	.6
.6513	358.33	134.2	.6
.6022	358.31	138	.6
.5513	358.32	141.6	.6
.5021	358.32	144.4	.6
.5008	358.32	144	.6
.4512	358.32	146.5	.6
.4009	358.3	148.2	.6
.352	358.32	150.3	.6
.3021	358.32	151.7	.6
.2516	358.31	152.8	.6
.2019	358.31	153.4	.6
.153	358.31	153.8	.6
.1023	358.32	153.5	.6
.0511	358.32	152	.6
.0309	358.31	150.8	.6
.0106	358.3	149	.6
0	358.31	147.9	.6

System: propanenitrile + ethyl 1,1-dimethylethyl ether; phases: Gas, Liquid
Property: Mole fraction of propanenitrile (Gas); method: Barkers Method
Mole fraction of propanenitrile	Temperature, K	Mole fraction of propanenitrile	uncertainty
1	358.33	1	0
.9899	358.32	.9406	.0029
.9702	358.31	.8471	.0032
.9518	358.32	.7788	.0034
.901	358.32	.6475	.0035
.8517	358.33	.5656	.0037
.8031	358.33	.5081	.0039
.7528	358.33	.4628	.0041
.7025	358.32	.4266	.0043
.6513	358.33	.3959	.0046
.6022	358.31	.3702	.0047
.5513	358.32	.3463	.0049
.5021	358.32	.3248	.0049
.5008	358.32	.3243	.0049
.4512	358.32	.3035	.0049
.4009	358.3	.2826	.0048
.352	358.32	.262	.0046
.3021	358.32	.2398	.0043
.2516	358.31	.2154	.0039
.2019	358.31	.1883	.0034
.153	358.31	.1572	.0029
.1023	358.32	.1181	.0024
.0511	358.32	.0676	.0017
.0309	358.31	.0434	.0013
.0106	358.3	.016	.0006
0	358.31	0	0

System: propanenitrile + ethyl 1,1-dimethylethyl ether; phases: Gas, Liquid
Property: Boiling temperature at pressure P, K (Gas); method: Closed cell (Static) method
Pressure, kPa	Mole fraction of propanenitrile	Boiling temperature at pressure P, K	uncertainty
102.6	0	346.28	.05
102.6	.019	345.82	.05
102.6	.04	345.54	.05
102.6	.073	345.31	.05
102.6	.113	345.11	.05
102.6	.185	345.14	.05
102.6	.275	345.46	.05
102.6	.364	346.02	.05
102.6	.482	347.12	.05
102.6	.679	350.37	.05
102.6	.765	353.11	.05
102.6	.856	357.21	.05
102.6	.929	362.52	.05
102.6	.953	364.62	.05
102.6	.964	366.09	.05
102.6	.973	367.06	.05
102.6	1	370.9	.05
65.2	0	332.68	.05
65.2	.041	332.19	.05
65.2	.053	332.13	.05
65.2	.066	332	.05
65.2	.078	331.94	.05
65.2	.09	331.9	.05
65.2	.114	331.82	.05
65.2	.126	331.82	.05
65.2	.138	331.81	.05
65.2	.15	331.81	.05
65.2	.163	331.82	.05
65.2	.183	331.85	.05
65.2	.182	331.91	.05
65.2	.218	331.95	.05
65.2	.325	332.49	.05
65.2	.454	333.45	.05
65.2	.471	333.62	.05
65.2	.563	334.72	.05
65.2	.662	336.4	.05
65.2	.747	338.51	.05
65.2	.818	341.11	.05
65.2	.883	344.47	.05
65.2	.912	346.7	.05
65.2	.924	347.61	.05
65.2	.949	349.84	.05
65.2	.966	351.8	.05
65.2	.977	353.05	.05
65.2	1	356.17	.05

System: propanenitrile + ethyl 1,1-dimethylethyl ether; phases: Gas, Liquid
Property: Mole fraction of propanenitrile (Gas); method: Chromatography
Mole fraction of propanenitrile	Temperature, K	Mole fraction of propanenitrile	uncertainty
0	346.28	0	.002
.019	345.82	.029	.002
.04	345.54	.055	.002
.073	345.31	.089	.002
.113	345.11	.123	.002
.185	345.14	.169	.002
.275	345.46	.215	.002
.364	346.02	.254	.002
.482	347.12	.303	.002
.679	350.37	.403	.002
.765	353.11	.475	.002
.856	357.21	.581	.002
.929	362.52	.741	.002
.953	364.62	.8	.002
.964	366.09	.839	.002
.973	367.06	.869	.002
1	370.9	1	.002
0	332.68	0	.002
.041	332.19	.056	.002
.053	332.13	.07	.002
.066	332	.082	.002
.078	331.94	.093	.002
.09	331.9	.104	.002
.114	331.82	.122	.002
.126	331.82	.13	.002
.138	331.81	.138	.002
.15	331.81	.145	.002
.163	331.82	.153	.002
.183	331.85	.164	.002
.182	331.91	.165	.002
.218	331.95	.186	.002
.325	332.49	.229	.002
.454	333.45	.28	.002
.471	333.62	.287	.002
.563	334.72	.327	.002
.662	336.4	.377	.002
.747	338.51	.437	.002
.818	341.11	.51	.002
.883	344.47	.607	.002
.912	346.7	.667	.002
.924	347.61	.697	.002
.949	349.84	.771	.002
.966	351.8	.835	.002
.977	353.05	.882	.002
1	356.17	1	.002

System: propanenitrile + ethyl 1,1-dimethylethyl ether; phases: Liquid, Gas
Property: Azeotropic composition: mole fraction of propanenitrile (Liquid); method: By X=Y
Temperature, K	Azeotropic composition: mole fraction of propanenitrile	uncertainty
331.81	.137	.002
345.09	.147	.002

System: propanenitrile + ethyl 1,1-dimethylethyl ether; phases: Liquid, Gas
Property: Azeotropic composition: mole fraction of propanenitrile (Liquid); method: By X=Y
Pressure, kPa	Azeotropic composition: mole fraction of propanenitrile	uncertainty
65.21	.137	.002
102.2	.147	.002
