Measured thermophysical data. Thermal properties of 1-alkyl-3-methylimidazolium bis(trifluoromethylsulfonyl)imide ionic liquids with linear, branched and cyclic alkyl substituents
Source: Fluid Phase Equilib., 2017, 10.1016/j.fluid.2017.03.021
Compound 1: 1-butyl-3-pentylimidazolium bis((trifluoromethyl)sulfonyl)imide, C14H23F6N3O4S2, purity 99%
Compound 2: 1-cyclopentyl-3-butylimidazolium bis((trifluoromethyl)sulfonyl)imide, C14H21F6N3O4S2, purity 99%
Compound 3: 1-butyl-3-(3-pentyl)imidazolium bis((trifluoromethyl)sulfonyl)imide, C14H23F6N3O4S2, purity 99%
Compound 4: 1-butyl-3-isopentylimidazolium bis((trifluoromethyl)sulfonyl)amide, C14H23F6N3O4S2, purity 99%
Compound 5: 1-hexyl-3-methylimidazolium bis(trifluoromethylsulfonyl)imide, C12H19F6N3O4S2, purity 99.9%

System: 1-butyl-3-pentylimidazolium bis((trifluoromethyl)sulfonyl)imide; phases: Liquid
Fixed: Pressure, kPa = 101.325
Property: Mass density, kg/m3 (Liquid); method: Vibrating tube method
Temperature, K	Mass density, kg/m3	uncertainty
287.15	1327.3	
289.15	1325.5	
291.15	1323.7	
293.15	1321.9	
295.15	1320.1	
297.15	1318.3	
299.15	1316.5	
301.15	1314.7	
303.15	1312.9	
305.15	1311.1	
307.15	1309.4	
309.15	1307.6	
311.15	1305.8	
313.15	1304	
315.15	1302.3	
317.15	1300.5	
319.15	1298.8	
321.15	1297	
323.15	1295.2	
325.15	1293.5	
327.15	1291.7	
329.15	1290	
331.15	1288.3	
333.15	1286.5	
335.15	1284.8	
337.15	1283	
339.15	1281.3	
341.15	1279.6	
343.15	1277.8	

System: 1-butyl-3-pentylimidazolium bis((trifluoromethyl)sulfonyl)imide; phases: Liquid
Fixed: Pressure, kPa = 101.325
Property: Speed of sound, m/s (Liquid); method: Sing-around technique in a fixed-path interferometer
Temperature, K	Speed of sound, m/s	uncertainty
287.15	1239.6	
289.15	1234.8	
291.15	1230	
293.15	1225.3	
295.15	1220.6	
297.15	1216	
299.15	1211.3	
301.15	1206.7	
303.15	1202.1	
305.15	1197.6	
307.15	1193	
309.15	1188.5	
311.15	1184	
313.15	1179.6	
315.15	1175.1	
317.15	1170.7	
319.15	1166.3	
321.15	1161.8	
323.15	1157.5	
325.15	1153.1	
327.15	1148.7	
329.15	1144.4	
331.15	1140.1	
333.15	1135.8	
335.15	1131.5	
337.15	1127.3	
339.15	1123	
341.15	1118.8	
343.15	1114.7	

System: 1-butyl-3-pentylimidazolium bis((trifluoromethyl)sulfonyl)imide; phases: Liquid
Fixed: Pressure, kPa = 101.325
Property: Molar heat capacity at constant pressure, J/K/mol (Liquid); method: DSC
Temperature, K	Molar heat capacity at constant pressure, J/K/mol	uncertainty
303.15	690.67	
304.15	691.38	
305.15	692.05	
306.15	692.76	
307.15	693.52	
308.15	694.28	
309.15	694.95	
310.15	695.57	
311.15	696.23	
312.15	697.09	
313.15	697.9	
314.15	698.7	
315.15	699.42	
316.15	700.08	
317.15	700.84	
318.15	701.65	
319.15	702.37	
320.15	703.22	
321.15	703.98	
322.15	704.74	
323.15	705.5	
324.15	706.26	
325.15	707.07	
326.15	707.83	
327.15	708.69	
328.15	709.54	
329.15	710.35	
330.15	711.07	
331.15	711.87	
332.15	712.64	
333.15	713.4	
334.15	714.16	
335.15	714.87	
336.15	715.68	
337.15	716.44	
338.15	717.2	
339.15	718.01	
340.15	718.67	
341.15	719.43	
342.15	719.96	
343.15	720.62	
344.15	721.24	
345.15	721.86	
346.15	722.48	
347.15	723.29	
348.15	724.47	
293.15	683.58	
294.15	684.63	
295.15	685.3	
296.15	685.96	
297.15	686.63	
298.15	687.34	
299.15	687.96	
300.15	688.62	
301.15	689.29	
302.15	690	

System: 1-cyclopentyl-3-butylimidazolium bis((trifluoromethyl)sulfonyl)imide; phases: Liquid
Fixed: Pressure, kPa = 101.325
Property: Mass density, kg/m3 (Liquid); method: Vibrating tube method
Temperature, K	Mass density, kg/m3	uncertainty
287.15	1384.9	
289.15	1383.1	
291.15	1381.2	
293.15	1379.4	
295.15	1377.5	
297.15	1375.7	
299.15	1373.8	
301.15	1372	
303.15	1370.2	
305.15	1368.4	
307.15	1366.5	
309.15	1364.7	
311.15	1362.9	
313.15	1361.1	
315.15	1359.3	
317.15	1357.5	
319.15	1355.7	
321.15	1353.9	
323.15	1352.1	
325.15	1350.3	
327.15	1348.5	
329.15	1346.7	
331.15	1344.9	
333.15	1343.1	
335.15	1341.3	
337.15	1339.6	
339.15	1337.8	
341.15	1336	
343.15	1334.3	

System: 1-cyclopentyl-3-butylimidazolium bis((trifluoromethyl)sulfonyl)imide; phases: Liquid
Fixed: Pressure, kPa = 101.325
Property: Speed of sound, m/s (Liquid); method: Sing-around technique in a fixed-path interferometer
Temperature, K	Speed of sound, m/s	uncertainty
287.15	1298.1	
289.15	1293.1	
291.15	1288.1	
293.15	1283.2	
295.15	1278.3	
297.15	1273.4	
299.15	1268.6	
301.15	1263.8	
303.15	1259	
305.15	1254.2	
307.15	1249.4	
309.15	1244.7	
311.15	1240	
313.15	1235.3	
315.15	1230.6	
317.15	1226	
319.15	1221.4	
321.15	1216.7	
323.15	1212.1	
325.15	1207.6	
327.15	1203	
329.15	1198.5	
331.15	1193.9	
333.15	1189.4	
335.15	1185	
337.15	1180.5	
339.15	1176.1	
341.15	1171.7	
343.15	1167.3	

System: 1-cyclopentyl-3-butylimidazolium bis((trifluoromethyl)sulfonyl)imide; phases: Liquid
Fixed: Pressure, kPa = 101.325
Property: Molar heat capacity at constant pressure, J/K/mol (Liquid); method: DSC
Temperature, K	Molar heat capacity at constant pressure, J/K/mol	uncertainty
303.15	655.4	
304.15	656.21	
305.15	657.01	
306.15	657.63	
307.15	658.43	
308.15	659.14	
309.15	659.9	
310.15	660.66	
311.15	661.42	
312.15	662.22	
313.15	663.07	
314.15	663.88	
315.15	664.73	
316.15	665.35	
317.15	666.15	
318.15	666.77	
319.15	667.43	
320.15	668.19	
321.15	668.94	
322.15	669.75	
323.15	670.51	
324.15	671.26	
325.15	672.02	
326.15	672.78	
327.15	673.49	
328.15	674.44	
329.15	675.15	
330.15	675.95	
331.15	676.8	
332.15	677.56	
333.15	678.41	
334.15	679.22	
335.15	680.21	
336.15	680.88	
337.15	681.63	
338.15	682.34	
339.15	683.01	
340.15	683.91	
341.15	684.76	
342.15	685.47	
343.15	686.27	
344.15	686.94	
345.15	687.65	
346.15	688.45	
347.15	689.07	
348.15	690.11	
293.15	648.54	
294.15	649.39	
295.15	650.01	
296.15	650.62	
297.15	651.28	
298.15	651.99	
299.15	652.8	
300.15	653.46	
301.15	654.08	
302.15	654.84	

System: 1-butyl-3-(3-pentyl)imidazolium bis((trifluoromethyl)sulfonyl)imide; phases: Liquid
Fixed: Pressure, kPa = 101.325
Property: Viscosity, Pa*s (Liquid); method: Falling or rolling sphere viscometry
Temperature, K	Viscosity, Pa*s	uncertainty
293.15	.1595	
294.15	.1488	
298.15	.1182	
303.15	.08955	
313.15	.05483	
323.15	.03598	
333.15	.02507	
343.15	.01826	
353.15	.01384	

System: 1-butyl-3-(3-pentyl)imidazolium bis((trifluoromethyl)sulfonyl)imide; phases: Liquid
Fixed: Pressure, kPa = 101.325
Property: Mass density, kg/m3 (Liquid); method: Vibrating tube method
Temperature, K	Mass density, kg/m3	uncertainty
287.15	1329.4	
289.15	1327.6	
291.15	1325.8	
293.15	1324	
295.15	1322.2	
297.15	1320.4	
299.15	1318.6	
301.15	1316.8	
303.15	1315	
305.15	1313.2	
307.15	1311.5	
309.15	1309.7	
311.15	1307.9	
313.15	1306.2	
315.15	1304.4	
317.15	1302.6	
319.15	1300.9	
321.15	1299.1	
323.15	1297.4	
325.15	1295.7	
327.15	1293.9	
329.15	1292.2	
331.15	1290.5	
333.15	1288.7	
335.15	1287	
337.15	1285.3	
339.15	1283.6	
341.15	1281.8	
343.15	1280.1	

System: 1-butyl-3-(3-pentyl)imidazolium bis((trifluoromethyl)sulfonyl)imide; phases: Liquid
Fixed: Pressure, kPa = 101.325
Property: Speed of sound, m/s (Liquid); method: Sing-around technique in a fixed-path interferometer
Temperature, K	Speed of sound, m/s	uncertainty
287.15	1238.8	
289.15	1233.8	
291.15	1228.9	
293.15	1224.1	
295.15	1219.3	
297.15	1214.5	
299.15	1209.8	
301.15	1205.1	
303.15	1200.4	
305.15	1195.8	
307.15	1191.2	
309.15	1186.7	
311.15	1182.1	
313.15	1177.6	
315.15	1173.1	
317.15	1168.6	
319.15	1164.2	
321.15	1159.8	
323.15	1155.4	
325.15	1151	
327.15	1146.6	
329.15	1142.3	
331.15	1137.9	
333.15	1133.6	
335.15	1129.3	
337.15	1125	
339.15	1120.8	
341.15	1116.6	
343.15	1112.4	

System: 1-butyl-3-(3-pentyl)imidazolium bis((trifluoromethyl)sulfonyl)imide; phases: Liquid
Fixed: Pressure, kPa = 101.325
Property: Molar heat capacity at constant pressure, J/K/mol (Liquid); method: DSC
Temperature, K	Molar heat capacity at constant pressure, J/K/mol	uncertainty
303.15	700.37	
304.15	701.22	
305.15	701.89	
306.15	702.56	
307.15	703.46	
308.15	704.22	
309.15	704.93	
310.15	705.84	
311.15	706.6	
312.15	707.21	
313.15	707.88	
314.15	708.69	
315.15	709.45	
316.15	710.35	
317.15	711.16	
318.15	711.87	
319.15	712.97	
320.15	713.78	
321.15	714.58	
322.15	715.35	
323.15	716.3	
324.15	717.1	
325.15	718.2	
326.15	718.67	
327.15	719.58	
328.15	720.2	
329.15	721.15	
330.15	721.72	
331.15	722.48	
332.15	723.24	
333.15	723.9	
334.15	724.81	
335.15	725.43	
336.15	726.23	
337.15	726.9	
338.15	727.47	
339.15	728.09	
340.15	729.04	
341.15	729.42	
342.15	730.13	
343.15	731.13	
344.15	731.94	
345.15	732.61	
346.15	733.37	
347.15	733.89	
348.15	734.79	
294.15	692.9	
295.15	694.28	
296.15	695.14	
297.15	695.85	
298.15	696.61	
299.15	697.52	
300.15	698.18	
301.15	698.85	
302.15	699.65	

System: 1-butyl-3-isopentylimidazolium bis((trifluoromethyl)sulfonyl)amide; phases: Liquid
Fixed: Pressure, kPa = 101.325
Property: Mass density, kg/m3 (Liquid); method: Vibrating tube method
Temperature, K	Mass density, kg/m3	uncertainty
287.15	1328.1	
289.15	1326.3	
291.15	1324.4	
293.15	1322.6	
295.15	1320.8	
297.15	1319.1	
299.15	1317.3	
301.15	1315.5	
303.15	1313.7	
305.15	1311.9	
307.15	1310.2	
309.15	1308.4	
311.15	1306.6	
313.15	1304.9	
315.15	1303.1	
317.15	1301.3	
319.15	1299.6	
321.15	1297.8	
323.15	1296.1	
325.15	1294.3	
327.15	1292.6	
329.15	1290.8	
331.15	1289.1	
333.15	1287.4	
335.15	1285.6	
337.15	1283.9	
339.15	1282.2	
341.15	1280.4	
343.15	1278.7	

System: 1-butyl-3-isopentylimidazolium bis((trifluoromethyl)sulfonyl)amide; phases: Liquid
Fixed: Pressure, kPa = 101.325
Property: Speed of sound, m/s (Liquid); method: Sing-around technique in a fixed-path interferometer
Temperature, K	Speed of sound, m/s	uncertainty
287.15	1243.8	
289.15	1238.9	
291.15	1234.1	
293.15	1229.3	
295.15	1224.5	
297.15	1219.8	
299.15	1215.1	
301.15	1210.4	
303.15	1205.8	
305.15	1201.2	
307.15	1196.6	
309.15	1192	
311.15	1187.5	
313.15	1183	
315.15	1178.4	
317.15	1173.9	
319.15	1169.5	
321.15	1165	
323.15	1160.6	
325.15	1156.2	
327.15	1151.8	
329.15	1147.4	
331.15	1143	
333.15	1138.7	
335.15	1134.3	
337.15	1130	
339.15	1125.7	
341.15	1121.5	
343.15	1117.3	

System: 1-butyl-3-isopentylimidazolium bis((trifluoromethyl)sulfonyl)amide; phases: Liquid
Fixed: Pressure, kPa = 101.325
Property: Molar heat capacity at constant pressure, J/K/mol (Liquid); method: DSC
Temperature, K	Molar heat capacity at constant pressure, J/K/mol	uncertainty
303.15	689.15	
304.15	689.91	
305.15	690.67	
306.15	691.33	
307.15	692.19	
308.15	692.95	
309.15	693.62	
310.15	694.42	
311.15	695.14	
312.15	695.9	
313.15	696.66	
314.15	697.47	
315.15	698.23	
316.15	698.94	
317.15	699.65	
318.15	700.56	
319.15	701.27	
320.15	702.08	
321.15	702.84	
322.15	703.7	
323.15	704.55	
324.15	705.36	
325.15	706.26	
326.15	707.07	
327.15	707.93	
328.15	708.78	
329.15	709.59	
330.15	710.4	
331.15	711.16	
332.15	711.97	
333.15	712.68	
334.15	713.49	
335.15	714.25	
336.15	714.92	
337.15	715.82	
338.15	716.58	
339.15	717.34	
340.15	718.15	
341.15	718.86	
342.15	719.53	
343.15	720.2	
344.15	720.81	
345.15	721.43	
346.15	722.24	
347.15	723.05	
348.15	724.28	
293.15	681.82	
294.15	682.92	
295.15	683.63	
296.15	684.34	
297.15	685.11	
298.15	685.77	
299.15	686.48	
300.15	687.15	
301.15	687.82	
302.15	688.48	

System: 1-hexyl-3-methylimidazolium bis(trifluoromethylsulfonyl)imide; phases: Liquid
Fixed: Pressure, kPa = 101.325
Property: Mass density, kg/m3 (Liquid); method: Vibrating tube method
Temperature, K	Mass density, kg/m3	uncertainty
293.15	1377.1	
298.15	1372.5	
303.15	1367.8	
308.15	1363.5	
313.15	1358.7	
318.15	1354.3	
323.15	1349.6	
328.15	1345.2	
333.15	1340.5	
338.15	1336.2	
343.15	1331.6	
