Measured thermophysical data. Experimental investigation and modelling of phase equilibria for the Ag-Cu-Pb system in vacuum distillation
Source: Fluid Phase Equilib., 2016, 10.1016/j.fluid.2016.02.026
Compound 1: silver, Ag, purity 99.99%
Compound 2: copper, Cu, purity 99.90%
Compound 3: lead, Pb, purity 99.90%

System: lead + silver + copper; phases: Gas, Liquid
Property: Vapor or sublimation pressure, kPa (Gas); method: Closed cell (Static) method
Temperature, K	Mole fraction of silver	Mole fraction of copper	Vapor or sublimation pressure, kPa	uncertainty
1073	.1793	.7373	.01	
1123	.188	.7415	.01	
1173	.1927	.7518	.01	
1223	.1734	.8253	.01	
1273	.1825	.8165	.01	
1323	.1925	.8068	.01	

System: lead + silver + copper; phases: Gas, Liquid
Property: Mole fraction of silver (Gas); method: atomic absorption spectrometry
Temperature, K	Mole fraction of silver	Mole fraction of copper	Mole fraction of silver	uncertainty
1073	.1793	.7373	.005	
1123	.188	.7415	.0075	
1173	.1927	.7518	.0082	
1223	.1734	.8253	.0205	
1273	.1825	.8165	.0231	
1323	.1925	.8068	.0282	

System: lead + silver + copper; phases: Gas, Liquid
Property: Mole fraction of copper (Gas); method: atomic absorption spectrometry
Temperature, K	Mole fraction of silver	Mole fraction of copper	Mole fraction of copper	uncertainty
1073	.1793	.7373	.0005	
1123	.188	.7415	.0006	
1173	.1927	.7518	.0007	
1223	.1734	.8253	.0011	
1273	.1825	.8165	.0039	
1323	.1925	.8068	.0042	
