Measured thermophysical data. Extraction of nitrogen compounds from diesel fuel using imidazolium- and pyridinium- based ionic liquids: Experiments, COSMO-RS prediction and NRTL correlation
Source: Fluid Phase Equilib., 2015, 10.1016/j.fluid.2015.07.021
Compound 1: 1-ethyl-3-methylimidazolium ethyl sulfate, C8H16N2O4S, purity 95%
Compound 2: 1-ethyl-3-methylimidazolium methanesulfonate, C7H14N2O3S, purity 95%
Compound 3: 1-ethyl-3-methylpyridinium ethylsulfate, C10H17NO4S, purity 95%
Compound 4: pyrrole, C4H5N, purity 98%
Compound 5: pyridine, C5H5N, purity 99.8%
Compound 6: indoline, C8H9N, purity 99%
Compound 7: quinoline, C9H7N, purity 98%
Compound 8: n-hexadecane, C16H34, purity 99%
Compound 9: deuterochloroform, CDCl3, purity 99.8%

System: pyrrole + n-hexadecane + 1-ethyl-3-methylimidazolium ethyl sulfate; phases: Liquid mixture 2, Liquid mixture 1
Fixed: Pressure, kPa = 101.325
Property: Mole fraction of n-hexadecane (Liquid mixture 2); method: Chromatography
Property: Mole fraction of pyrrole (Liquid mixture 1); method: Chromatography
Property: Mole fraction of n-hexadecane (Liquid mixture 1); method: Chromatography
Temperature, K	Mole fraction of pyrrole	Mole fraction of n-hexadecane	uncertainty	Mole fraction of pyrrole	uncertainty	Mole fraction of n-hexadecane	uncertainty
298.15	.0004	.9996	.0001	.1543	.0001	.0008	.0001
298.15	.0079	.9921	.0001	.6339	.0001	.0004	.0001
298.15	.0014	.9986	.0001	.2582	.0001	.0021	.0001
298.15	.0022	.9978	.0001	.3297	.0001	.0025	.0001
298.15	.0025	.9975	.0001	.4074	.0001	.0036	.0001
298.15	.0031	.9969	.0001	.4577	.0001	.0028	.0001
298.15	.0041	.9959	.0001	.5085	.0001	.0011	.0001
298.15	.005	.995	.0001	.547	.0001	.0012	.0001
298.15	.0053	.9947	.0001	.5802	.0001	.001	.0001
298.15	.007	.993	.0001	.6083	.0001	.002	.0001

System: pyridine + n-hexadecane + 1-ethyl-3-methylimidazolium ethyl sulfate; phases: Liquid mixture 2, Liquid mixture 1
Fixed: Pressure, kPa = 101.325
Property: Mole fraction of n-hexadecane (Liquid mixture 2); method: Chromatography
Property: Mole fraction of pyridine (Liquid mixture 1); method: Chromatography
Property: Mole fraction of n-hexadecane (Liquid mixture 1); method: Chromatography
Temperature, K	Mole fraction of pyridine	Mole fraction of n-hexadecane	uncertainty	Mole fraction of pyridine	uncertainty	Mole fraction of n-hexadecane	uncertainty
298.15	.0319	.9681	.0001	.1011	.0001	.003	.0001
298.15	.2534	.7466	.0001	.5737	.0001	.0005	.0001
298.15	.0661	.9339	.0001	.1907	.0001	.0015	.0001
298.15	.0966	.9034	.0001	.255	.0001	.0011	.0001
298.15	.1184	.8816	.0001	.3211	.0001	.0013	.0001
298.15	.1461	.8539	.0001	.3768	.0001	.0017	.0001
298.15	.1729	.8271	.0001	.4299	.0001	.0036	.0001
298.15	.2025	.7975	.0001	.4622	.0001	.0025	.0001
298.15	.2189	.7811	.0001	.5047	.0001	.0015	.0001
298.15	.2351	.7649	.0001	.5389	.0001	.0009	.0001

System: indoline + n-hexadecane + 1-ethyl-3-methylimidazolium ethyl sulfate; phases: Liquid mixture 2, Liquid mixture 1
Fixed: Pressure, kPa = 101.325
Property: Mole fraction of n-hexadecane (Liquid mixture 2); method: Chromatography
Property: Mole fraction of indoline (Liquid mixture 1); method: Chromatography
Property: Mole fraction of n-hexadecane (Liquid mixture 1); method: Chromatography
Temperature, K	Mole fraction of indoline	Mole fraction of n-hexadecane	uncertainty	Mole fraction of indoline	uncertainty	Mole fraction of n-hexadecane	uncertainty
298.15	.0129	.9871	.0001	.0848	.0001	.0039	.0001
298.15	.0635	.9365	.0001	.4924	.0001	.0017	.0001
298.15	.015	.985	.0001	.1631	.0001	.0026	.0001
298.15	.0233	.9767	.0001	.2218	.0001	.0016	.0001
298.15	.029	.971	.0001	.4239	.0001	.0014	.0001
298.15	.0373	.9627	.0001	.3206	.0001	.0015	.0001
298.15	.0417	.9583	.0001	.3511	.0001	.0015	.0001
298.15	.0512	.9488	.0001	.3902	.0001	.0013	.0001
298.15	.0564	.9436	.0001	.4278	.0001	.0011	.0001
298.15	.0625	.9375	.0001	.4552	.0001	.0019	.0001

System: quinoline + n-hexadecane + 1-ethyl-3-methylimidazolium ethyl sulfate; phases: Liquid mixture 2, Liquid mixture 1
Fixed: Pressure, kPa = 101.325
Property: Mole fraction of n-hexadecane (Liquid mixture 2); method: Chromatography
Property: Mole fraction of quinoline (Liquid mixture 1); method: Chromatography
Property: Mole fraction of n-hexadecane (Liquid mixture 1); method: Chromatography
Temperature, K	Mole fraction of quinoline	Mole fraction of n-hexadecane	uncertainty	Mole fraction of quinoline	uncertainty	Mole fraction of n-hexadecane	uncertainty
298.15	.028	.972	.0001	.0651	.0001	.0064	.0001
298.15	.2051	.7949	.0001	.4401	.0001	.0021	.0001
298.15	.0473	.9527	.0001	.1278	.0001	.0021	.0001
298.15	.0693	.9307	.0001	.1731	.0001	.003	.0001
298.15	.0886	.9114	.0001	.2207	.0001	.0021	.0001
298.15	.1084	.8916	.0001	.2637	.0001	.0021	.0001
298.15	.1298	.8702	.0001	.31	.0001	.0013	.0001
298.15	.1498	.8502	.0001	.3413	.0001	.0021	.0001
298.15	.1637	.8363	.0001	.3784	.0001	.0024	.0001
298.15	.1841	.8159	.0001	.4066	.0001	.0017	.0001

System: pyrrole + n-hexadecane + 1-ethyl-3-methylpyridinium ethylsulfate; phases: Liquid mixture 2, Liquid mixture 1
Fixed: Pressure, kPa = 101.325
Property: Mole fraction of n-hexadecane (Liquid mixture 2); method: Chromatography
Property: Mole fraction of pyrrole (Liquid mixture 1); method: Chromatography
Property: Mole fraction of n-hexadecane (Liquid mixture 1); method: Chromatography
Temperature, K	Mole fraction of pyrrole	Mole fraction of n-hexadecane	uncertainty	Mole fraction of pyrrole	uncertainty	Mole fraction of n-hexadecane	uncertainty
298.15	0	1	.0001	.1487	.0001	.0096	.0001
298.15	.0057	.9943	.0001	.6372	.0001	.0026	.0001
298.15	.0006	.9994	.0001	.2584	.0001	.0044	.0001
298.15	.0013	.9987	.0001	.3403	.0001	.0111	.0001
298.15	.0018	.9982	.0001	.4102	.0001	.0071	.0001
298.15	.0027	.9973	.0001	.4648	.0001	.0024	.0001
298.15	.0026	.9974	.0001	.5085	.0001	.0101	.0001
298.15	.0043	.9957	.0001	.5458	.0001	.0041	.0001
298.15	.0058	.9942	.0001	.583	.0001	.0038	.0001
298.15	.004	.996	.0001	.596	.0001	.0099	.0001

System: pyridine + n-hexadecane + 1-ethyl-3-methylpyridinium ethylsulfate; phases: Liquid mixture 2, Liquid mixture 1
Fixed: Pressure, kPa = 101.325
Property: Mole fraction of n-hexadecane (Liquid mixture 2); method: Chromatography
Property: Mole fraction of pyridine (Liquid mixture 1); method: Chromatography
Property: Mole fraction of n-hexadecane (Liquid mixture 1); method: Chromatography
Temperature, K	Mole fraction of pyridine	Mole fraction of n-hexadecane	uncertainty	Mole fraction of pyridine	uncertainty	Mole fraction of n-hexadecane	uncertainty
298.15	.0323	.9677	.0001	.1052	.0001	.0055	.0001
298.15	.254	.746	.0001	.5475	.0001	.0033	.0001
298.15	.0554	.9446	.0001	.1948	.0001	.0046	.0001
298.15	.0824	.9176	.0001	.255	.0001	.0038	.0001
298.15	.1154	.8846	.0001	.3282	.0001	.0056	.0001
298.15	.1303	.8697	.0001	.3943	.0001	.0046	.0001
298.15	.1505	.8495	.0001	.432	.0001	.0036	.0001
298.15	.1683	.8317	.0001	.4768	.0001	.0033	.0001
298.15	.1944	.8056	.0001	.4955	.0001	.0028	.0001
298.15	.2404	.7596	.0001	.5285	.0001	.0051	.0001

System: indoline + n-hexadecane + 1-ethyl-3-methylpyridinium ethylsulfate; phases: Liquid mixture 2, Liquid mixture 1
Fixed: Pressure, kPa = 101.325
Property: Mole fraction of n-hexadecane (Liquid mixture 2); method: Chromatography
Property: Mole fraction of indoline (Liquid mixture 1); method: Chromatography
Property: Mole fraction of n-hexadecane (Liquid mixture 1); method: Chromatography
Temperature, K	Mole fraction of indoline	Mole fraction of n-hexadecane	uncertainty	Mole fraction of indoline	uncertainty	Mole fraction of n-hexadecane	uncertainty
298.15	.0044	.9956	.0001	.0858	.0001	.0104	.0001
298.15	.0449	.9551	.0001	.4937	.0001	.0032	.0001
298.15	.0066	.9934	.0001	.1649	.0001	.004	.0001
298.15	.0153	.9847	.0001	.2273	.0001	.0034	.0001
298.15	.0198	.9802	.0001	.2767	.0001	.0065	.0001
298.15	.0242	.9758	.0001	.3405	.0001	.0024	.0001
298.15	.0292	.9708	.0001	.3574	.0001	.0038	.0001
298.15	.0323	.9677	.0001	.4159	.0001	.0051	.0001
298.15	.0368	.9632	.0001	.4339	.0001	.0026	.0001
298.15	.0401	.9599	.0001	.4822	.0001	.0042	.0001

System: quinoline + n-hexadecane + 1-ethyl-3-methylpyridinium ethylsulfate; phases: Liquid mixture 2, Liquid mixture 1
Fixed: Pressure, kPa = 101.325
Property: Mole fraction of n-hexadecane (Liquid mixture 2); method: Chromatography
Property: Mole fraction of quinoline (Liquid mixture 1); method: Chromatography
Property: Mole fraction of n-hexadecane (Liquid mixture 1); method: Chromatography
Temperature, K	Mole fraction of quinoline	Mole fraction of n-hexadecane	uncertainty	Mole fraction of quinoline	uncertainty	Mole fraction of n-hexadecane	uncertainty
298.15	.017	.983	.0001	.0739	.0001	.0087	.0001
298.15	.1423	.8577	.0001	.4626	.0001	.0023	.0001
298.15	.0326	.9674	.0001	.1408	.0001	.0037	.0001
298.15	.0457	.9543	.0001	.2018	.0001	.0031	.0001
298.15	.0603	.9397	.0001	.2396	.0001	.0023	.0001
298.15	.0774	.9226	.0001	.2912	.0001	.0022	.0001
298.15	.0867	.9133	.0001	.3397	.0001	.0018	.0001
298.15	.0936	.9064	.0001	.3794	.0001	.0051	.0001
298.15	.1066	.8934	.0001	.4151	.0001	.0017	.0001
298.15	.1201	.8799	.0001	.4359	.0001	.0021	.0001

System: quinoline + n-hexadecane + 1-ethyl-3-methylimidazolium methanesulfonate; phases: Liquid mixture 2, Liquid mixture 1
Fixed: Pressure, kPa = 101.325
Property: Mole fraction of n-hexadecane (Liquid mixture 2); method: Chromatography
Property: Mole fraction of quinoline (Liquid mixture 1); method: Chromatography
Property: Mole fraction of n-hexadecane (Liquid mixture 1); method: Chromatography
Temperature, K	Mole fraction of quinoline	Mole fraction of n-hexadecane	uncertainty	Mole fraction of quinoline	uncertainty	Mole fraction of n-hexadecane	uncertainty
298.15	.0148	.9852	.0001	.0617	.0001	.006	.0001
298.15	.1422	.8578	.0001	.4036	.0001	.0015	.0001
298.15	.028	.972	.0001	.1176	.0001	.0017	.0001
298.15	.0414	.9586	.0001	.1581	.0001	.0012	.0001
298.15	.0576	.9424	.0001	.1931	.0001	.0011	.0001
298.15	.0719	.9281	.0001	.2472	.0001	.0012	.0001
298.15	.0876	.9124	.0001	.2868	.0001	.001	.0001
298.15	.1055	.8945	.0001	.3206	.0001	.0012	.0001
298.15	.1197	.8803	.0001	.3556	.0001	.0017	.0001
298.15	.1294	.8706	.0001	.3816	.0001	.002	.0001

System: pyrrole + n-hexadecane + 1-ethyl-3-methylimidazolium methanesulfonate; phases: Liquid mixture 2, Liquid mixture 1
Fixed: Pressure, kPa = 101.325
Property: Mole fraction of n-hexadecane (Liquid mixture 2); method: Chromatography
Property: Mole fraction of pyrrole (Liquid mixture 1); method: Chromatography
Property: Mole fraction of n-hexadecane (Liquid mixture 1); method: Chromatography
Temperature, K	Mole fraction of pyrrole	Mole fraction of n-hexadecane	uncertainty	Mole fraction of pyrrole	uncertainty	Mole fraction of n-hexadecane	uncertainty
298.15	.0003	.9997	.0001	.1357	.0001	.0064	.0001
298.15	.0041	.9959	.0001	.6101	.0001	.0009	.0001
298.15	.0005	.9995	.0001	.2361	.0001	.0018	.0001
298.15	.0012	.9988	.0001	.3137	.0001	.0057	.0001
298.15	.0015	.9985	.0001	.3797	.0001	.0022	.0001
298.15	.0019	.9981	.0001	.4367	.0001	.0008	.0001
298.15	.0026	.9974	.0001	.4851	.0001	.0019	.0001
298.15	.0029	.9971	.0001	.5201	.0001	.001	.0001
298.15	.0032	.9968	.0001	.5515	.0001	.0013	.0001
298.15	.0036	.9964	.0001	.5866	.0001	.0008	.0001

System: pyridine + n-hexadecane + 1-ethyl-3-methylimidazolium methanesulfonate; phases: Liquid mixture 2, Liquid mixture 1
Fixed: Pressure, kPa = 101.325
Property: Mole fraction of n-hexadecane (Liquid mixture 2); method: Chromatography
Property: Mole fraction of pyridine (Liquid mixture 1); method: Chromatography
Property: Mole fraction of n-hexadecane (Liquid mixture 1); method: Chromatography
Temperature, K	Mole fraction of pyridine	Mole fraction of n-hexadecane	uncertainty	Mole fraction of pyridine	uncertainty	Mole fraction of n-hexadecane	uncertainty
298.15	.018	.982	.0001	.1159	.0001	.0035	.0001
298.15	.3202	.6798	.0001	.5265	.0001	.0008	.0001
298.15	.0694	.9306	.0001	.1787	.0001	.002	.0001
298.15	.105	.895	.0001	.2445	.0001	.0018	.0001
298.15	.1363	.8637	.0001	.307	.0001	.0012	.0001
298.15	.1703	.8297	.0001	.3558	.0001	.0011	.0001
298.15	.2042	.7958	.0001	.4074	.0001	.0008	.0001
298.15	.2291	.7709	.0001	.4413	.0001	.0007	.0001
298.15	.2548	.7452	.0001	.4728	.0001	.0008	.0001
298.15	.2885	.7115	.0001	.4905	.0001	.0013	.0001

System: indoline + n-hexadecane + 1-ethyl-3-methylimidazolium methanesulfonate; phases: Liquid mixture 2, Liquid mixture 1
Fixed: Pressure, kPa = 101.325
Property: Mole fraction of n-hexadecane (Liquid mixture 2); method: Chromatography
Property: Mole fraction of indoline (Liquid mixture 1); method: Chromatography
Property: Mole fraction of n-hexadecane (Liquid mixture 1); method: Chromatography
Temperature, K	Mole fraction of indoline	Mole fraction of n-hexadecane	uncertainty	Mole fraction of indoline	uncertainty	Mole fraction of n-hexadecane	uncertainty
298.15	.0035	.9965	.0001	.0841	.0001	.0101	.0001
298.15	.0295	.9705	.0001	.4626	.0001	.0013	.0001
298.15	.0077	.9923	.0001	.1468	.0001	.0033	.0001
298.15	.0115	.9885	.0001	.2094	.0001	.0013	.0001
298.15	.0148	.9852	.0001	.2579	.0001	.002	.0001
298.15	.018	.982	.0001	.3032	.0001	.0036	.0001
298.15	.0192	.9808	.0001	.3484	.0001	.0011	.0001
298.15	.0235	.9765	.0001	.3771	.0001	.0014	.0001
298.15	.0256	.9744	.0001	.4087	.0001	.0015	.0001
298.15	.0279	.9721	.0001	.4385	.0001	.0008	.0001
