Measured thermophysical data. Measurement and modeling of epicatechin solubility in supercritical carbon dioxide fluid
Source: Fluid Phase Equilib., 2013, 10.1016/j.fluid.2012.12.005
Compound 1: cis-2H-1-benzopyran-3,5,7-triol, 2-(3,4-dihydroxyphenyl)-3,4-dihydro-, C15H14O6, purity 98%
Compound 2: carbon dioxide, CO2, purity 99.9%

System: carbon dioxide + cis-2H-1-benzopyran-3,5,7-triol, 2-(3,4-dihydroxyphenyl)-3,4-dihydro-; phases: Fluid (supercritical or subcritical phases), Crystal
Property: Mole fraction of cis-2H-1-benzopyran-3,5,7-triol, 2-(3,4-dihydroxyphenyl)-3,4-dihydro- (Fluid (supercritical or subcritical phases)); method: Chromatography
Pressure, kPa	Temperature, K	Mole fraction of cis-2H-1-benzopyran-3,5,7-triol, 2-(3,4-dihydroxyphenyl)-3,4-dihydro-	uncertainty
12000	313.15	.00000066	.000000014
13000	313.15	.00000077	.000000022
14000	313.15	.00000083	.000000004
15000	313.15	.00000089	.000000024
16000	313.15	.00000102	.000000024
17000	313.15	.00000109	.000000019
18000	313.15	.00000114	.000000034
19000	313.15	.00000121	.000000004
20000	313.15	.00000127	.000000006
21000	313.15	.00000134	.000000011
22000	313.15	.00000142	.000000005
23000	313.15	.00000146	.000000038
24000	313.15	.00000153	.000000016
25000	313.15	.00000157	.000000021
26000	313.15	.00000164	.000000014
12000	323.15	.00000093	.000000022
13000	323.15	.00000116	.000000035
14000	323.15	.00000157	.000000039
15000	323.15	.0000018	.000000045
16000	323.15	.00000203	.000000057
17000	323.15	.00000229	.000000042
18000	323.15	.00000239	.000000027
19000	323.15	.00000272	.000000068
20000	323.15	.00000279	.000000045
21000	323.15	.00000303	.000000079
22000	323.15	.00000326	.000000092
23000	323.15	.0000034	.000000052
24000	323.15	.0000036	.000000058
25000	323.15	.00000377	.00000005
26000	323.15	.00000392	.000000036
12000	333.15	.00000109	.000000032
13000	333.15	.00000165	.000000044
14000	333.15	.00000227	.000000064
15000	333.15	.00000288	.000000056
16000	333.15	.0000035	.000000082
17000	333.15	.00000409	.000000071
18000	333.15	.00000467	.000000071
19000	333.15	.00000519	.000000048
20000	333.15	.00000573	.000000088
21000	333.15	.00000622	.000000108
22000	333.15	.00000673	.000000096
23000	333.15	.00000718	.00000007
24000	333.15	.00000766	.000000094
25000	333.15	.0000081	.000000064
26000	333.15	.00000854	.000000051
12000	343.15	.00000149	.000000024
13000	343.15	.00000227	.000000059
14000	343.15	.00000326	.000000057
15000	343.15	.00000438	.000000051
16000	343.15	.00000556	.000000011
17000	343.15	.00000685	.000000015
18000	343.15	.0000081	.000000011
19000	343.15	.00000934	.000000023
20000	343.15	.00001057	.000000023
21000	343.15	.00001177	.000000021
22000	343.15	.00001298	.00000013
23000	343.15	.00001414	.000000015
24000	343.15	.00001531	.000000014
25000	343.15	.00001638	.000000015
26000	343.15	.00001753	.000000014
