Measured thermophysical data. Effect of partial pressure on CO2 solubility in ionic liquid mixtures of 1-butyl-3-methylimidazolium acetate and 1-butyl-3- methylimidazolium bis(trifluoromethanesulfonyl)amide
Source: Fluid Phase Equilib., 2016, 10.1016/j.fluid.2016.01.034
Compound 1: 1-butyl-3-methylimidazolium acetate, C10H18N2O2, purity 95%
Compound 2: 1-butyl-3-methylimidazolium bis(trifluoromethylsulfonyl)imide, C10H15F6N3O4S2, purity 95%
Compound 3: carbon dioxide, CO2, purity 99.99%

System: carbon dioxide + 1-butyl-3-methylimidazolium bis(trifluoromethylsulfonyl)imide + 1-butyl-3-methylimidazolium acetate; phases: Liquid, Gas
Fixed: Pressure, kPa = 101
Property: Mole fraction of carbon dioxide (Liquid); method: gravimetric method
Solvent: Mass fraction of 1-butyl-3-methylimidazolium acetate	Temperature, K	Mole fraction of carbon dioxide	uncertainty
.15	283.8	.118	
.15	299.1	.104	
.15	314.3	.0885	
.15	334.4	.0677	
.3	283.8	.174	
.3	299.1	.152	
.3	314.3	.133	
.3	334.4	.106	
.5	283.8	.229	
.5	299.1	.206	
.5	314.3	.182	
.5	334.4	.15	

System: carbon dioxide + 1-butyl-3-methylimidazolium bis(trifluoromethylsulfonyl)imide + 1-butyl-3-methylimidazolium acetate; phases: Liquid
Fixed: Temperature, K = 314.3
Fixed: Pressure, kPa = 101
Property: Mass density, kg/m3 (Liquid); method: Vibrating tube method
Mass fraction of 1-butyl-3-methylimidazolium acetate	Mole fraction of carbon dioxide	Mass density, kg/m3	uncertainty
.15	.0885	1348.6	
.3	.133	1285.2	
.5	.182	1211.6	
1	.25	1071.5	

System: carbon dioxide + 1-butyl-3-methylimidazolium bis(trifluoromethylsulfonyl)imide + 1-butyl-3-methylimidazolium acetate; phases: Liquid
Fixed: Temperature, K = 314.3
Fixed: Pressure, kPa = 101
Property: Viscosity, Pa*s (Liquid); method: Concentric cylinders viscometry
Mass fraction of 1-butyl-3-methylimidazolium acetate	Mole fraction of carbon dioxide	Viscosity, Pa*s	uncertainty
.15	.0885	.0392	
.3	.133	.0515	
.5	.182	.07	
1	.25	.126	

System: carbon dioxide + 1-butyl-3-methylimidazolium bis(trifluoromethylsulfonyl)imide + 1-butyl-3-methylimidazolium acetate; phases: Liquid
Fixed: Temperature, K = 314.3
Fixed: Pressure, kPa = 101
Property: Electrical conductivity, S/m (Liquid); method: Alternating current cell with electrodes
Mass fraction of 1-butyl-3-methylimidazolium acetate	Mole fraction of carbon dioxide	Electrical conductivity, S/m	uncertainty
.15	.0885	.474	
.3	.133	.33	
.5	.182	.237	
1	.25	.146	
