Measured thermophysical data. Solubility and solution thermodynamics of sulfamerazine and sulfamethazine in some ethanol + water mixtures
Source: Fluid Phase Equilib., 2013, 10.1016/j.fluid.2013.09.018
Compound 1: sulfamerazine, C11H12N4O2S, purity 99%
Compound 2: sulfamethazine, C12H14N4O2S, purity 99%
Compound 3: ethanol, C2H6O, purity 99.8%
Compound 4: water, H2O

System: ethanol + sulfamerazine + water; phases: Liquid, Crystal
Fixed: Pressure, kPa = 73.9
Property: Mole fraction of sulfamerazine (Liquid); method: UV/Vis spectrophotometry
Temperature, K	Solvent: Mole fraction of ethanol	Mole fraction of sulfamerazine	uncertainty
293.15	0	.0000134	.0000002
293.15	.0417	.0000181	.0000002
293.15	.0891	.0000343	.0000003
293.15	.1436	.0000752	.0000005
293.15	.2068	.0001405	.0000024
293.15	.2812	.0002414	.0000016
293.15	.3698	.0003335	.0000006
293.15	.4772	.0004134	.0000009
293.15	.6101	.000443	.000006
293.15	.7788	.000382	.000007
293.15	1	.000274	.000006
298.15	0	.0000171	.0000003
298.15	.0417	.0000232	.0000002
298.15	.0891	.0000443	.0000004
298.15	.1436	.0000945	.0000021
298.15	.2068	.00018	.0000003
298.15	.2812	.000294	.000005
298.15	.3698	.000408	.000006
298.15	.4772	.000499	.000007
298.15	.6101	.000555	.000007
298.15	.7788	.000466	.000003
298.15	1	.000341	.00001
303.15	0	.0000209	.0000001
303.15	.0417	.0000312	.0000007
303.15	.0891	.0000578	.0000014
303.15	.1436	.0001243	.0000017
303.15	.2068	.000235	.000004
303.15	.2812	.000364	.000005
303.15	.3698	.000502	.000005
303.15	.4772	.000592	.000005
303.15	.6101	.000645	.000017
303.15	.7788	.000559	.000015
303.15	1	.000409	.000009
308.15	0	.0000258	.0000003
308.15	.0417	.0000405	.0000008
308.15	.0891	.000081	.000003
308.15	.1436	.000167	.000003
308.15	.2068	.000296	.000004
308.15	.2812	.000479	.000001
308.15	.3698	.000648	.000003
308.15	.4772	.000766	.000004
308.15	.6101	.000809	.000018
308.15	.7788	.000696	.000004
308.15	1	.000495	.000004
313.15	0	.0000316	.0000004
313.15	.0417	.0000499	.0000015
313.15	.0891	.0001	.000003
313.15	.1436	.000207	.000004
313.15	.2068	.000364	.000003
313.15	.2812	.000586	.000008
313.15	.3698	.000767	.000012
313.15	.4772	.000927	.000007
313.15	.6101	.000943	.000002
313.15	.7788	.000811	.000015
313.15	1	.000636	.000011

System: sulfamethazine + ethanol + water; phases: Liquid, Crystal
Fixed: Pressure, kPa = 73.9
Property: Mole fraction of sulfamethazine (Liquid); method: UV/vis Spectrophotometry
Temperature, K	Solvent: Mole fraction of ethanol	Mole fraction of sulfamethazine	uncertainty
293.15	0	.0000222	.0000001
293.15	.0417	.0000413	.0000006
293.15	.0891	.0000769	.0000025
293.15	.1436	.0001566	.0000036
293.15	.2068	.0002814	.0000014
293.15	.2812	.00048	.000005
293.15	.3698	.000727	.000005
293.15	.4772	.000949	.000016
293.15	.6101	.001089	.000009
293.15	.7788	.001002	.000015
293.15	1	.000747	.000004
298.15	0	.0000281	.0000001
298.15	.0417	.0000495	.0000009
298.15	.0891	.000099	.000003
298.15	.1436	.0002	.000006
298.15	.2068	.000366	.000007
298.15	.2812	.000631	.000004
298.15	.3698	.000888	.000011
298.15	.4772	.00112	.000007
298.15	.6101	.001283	.000014
298.15	.7788	.00117	.000029
298.15	1	.000918	.000007
303.15	0	.0000367	.0000003
303.15	.0417	.0000634	.000001
303.15	.0891	.00012	.000004
303.15	.1436	.000268	.000014
303.15	.2068	.000484	.000006
303.15	.2812	.000779	.000006
303.15	.3698	.001145	.000001
303.15	.4772	.001469	.000024
303.15	.6101	.001662	.000014
303.15	.7788	.001416	.000029
303.15	1	.001087	.000014
308.15	0	.0000433	.0000001
308.15	.0417	.0000836	.0000017
308.15	.0891	.000169	.000007
308.15	.1436	.000343	.000009
308.15	.2068	.000604	.000008
308.15	.2812	.001005	.000018
308.15	.3698	.001452	.000009
308.15	.4772	.001801	.000009
308.15	.6101	.001957	.000004
308.15	.7788	.001787	.000023
308.15	1	.001299	.000023
313.15	0	.0000555	.0000004
313.15	.0417	.000106	.0000006
313.15	.0891	.000221	.000008
313.15	.1436	.000466	.000003
313.15	.2068	.000825	.000003
313.15	.2812	.001319	.000013
313.15	.3698	.001883	.000028
313.15	.4772	.002293	.000052
313.15	.6101	.002472	.000038
313.15	.7788	.002147	.000031
313.15	1	.001623	.000016

System: sulfamerazine + water; phases: Liquid, Crystal
Property: Mole fraction of sulfamerazine (Liquid); method: UV/Vis spectrophotometry
Temperature, K	Pressure, kPa	Mole fraction of sulfamerazine	uncertainty
293.15	73.9	.0000134	.0000002
298.15	73.9	.0000171	.0000003
303.15	73.9	.0000209	.0000001
308.15	73.9	.0000258	.0000003
313.15	73.9	.0000316	.0000004

System: ethanol + sulfamerazine; phases: Liquid, Crystal
Property: Mole fraction of sulfamerazine (Liquid); method: UV/Vis spectrophotometry
Temperature, K	Pressure, kPa	Mole fraction of sulfamerazine	uncertainty
293.15	73.9	.000274	.000006
298.15	73.9	.000341	.00001
303.15	73.9	.000409	.000009
308.15	73.9	.000495	.000004
313.15	73.9	.000636	.000011

System: sulfamethazine + water; phases: Liquid, Crystal
Property: Mole fraction of sulfamethazine (Liquid); method: UV/vis Spectrophotometry
Temperature, K	Pressure, kPa	Mole fraction of sulfamethazine	uncertainty
293.15	73.9	.0000222	.0000001
298.15	73.9	.0000281	.0000001
303.15	73.9	.0000367	.0000003
308.15	73.9	.0000433	.0000001
313.15	73.9	.0000555	.0000004

System: sulfamethazine + ethanol; phases: Liquid, Crystal
Property: Mole fraction of sulfamethazine (Liquid); method: UV/vis Spectrophotometry
Temperature, K	Pressure, kPa	Mole fraction of sulfamethazine	uncertainty
293.15	73.9	.000747	.000004
298.15	73.9	.000918	.000007
303.15	73.9	.001087	.000014
308.15	73.9	.001299	.000023
313.15	73.9	.001623	.000016
