Measured thermophysical data. Liquid-liquid equilibrium (LLE) data for ternary mixtures of {aliphatic + p-xylene + [EMpy][ESO4]}  at T = 313.15 K
Source: Fluid Phase Equilib., 2012, 10.1016/j.fluid.2012.07.005
Compound 1: heptane, C7H16, purity 99.9%
Compound 2: octane, C8H18, purity 99.9%
Compound 3: 1,4-dimethylbenzene, C8H10, purity 99.9%
Compound 4: 1-ethyl-3-methylpyridinium ethylsulfate, C10H17NO4S, purity 99%

System: 1,4-dimethylbenzene + heptane + 1-ethyl-3-methylpyridinium ethylsulfate; phases: Liquid mixture 1, Liquid mixture 2
Property: Mole fraction of heptane (Liquid mixture 1); method: NMR
Property: Mole fraction of 1,4-dimethylbenzene (Liquid mixture 2); method: NMR
Property: Mole fraction of heptane (Liquid mixture 2); method: NMR
Temperature, K	Pressure, kPa	Mole fraction of 1,4-dimethylbenzene	Mole fraction of heptane	uncertainty	Mole fraction of 1,4-dimethylbenzene	uncertainty	Mole fraction of heptane	uncertainty
313.15	101.3	.0896	.9104		.0199		.0058	
313.15	101.3	.2008	.7992		.0409		.0058	
313.15	101.3	.3127	.6873		.0626		.0054	
313.15	101.3	.406	.594		.0772		.006	
313.15	101.3	.4998	.5002		.0947		.0047	
313.15	101.3	.6129	.3871		.115		.0033	
313.15	101.3	.6987	.3013		.129		.0128	
313.15	101.3	.8089	.1911		.1471		.0076	
313.15	101.3	.8879	.1121		.1712		.0097	

System: 1,4-dimethylbenzene + octane + 1-ethyl-3-methylpyridinium ethylsulfate; phases: Liquid mixture 1, Liquid mixture 2
Property: Mole fraction of octane (Liquid mixture 1); method: NMR
Property: Mole fraction of 1,4-dimethylbenzene (Liquid mixture 2); method: NMR
Property: Mole fraction of octane (Liquid mixture 2); method: NMR
Temperature, K	Pressure, kPa	Mole fraction of 1,4-dimethylbenzene	Mole fraction of octane	uncertainty	Mole fraction of 1,4-dimethylbenzene	uncertainty	Mole fraction of octane	uncertainty
313.15	101.3	.1118	.8882		.0234		.0188	
313.15	101.3	.211	.789		.0416		.025	
313.15	101.3	.2883	.7117		.0565		.0131	
313.15	101.3	.4169	.5831		.0784		.0133	
313.15	101.3	.5161	.4839		.0981		.0134	
313.15	101.3	.6274	.3726		.1168		.0173	
313.15	101.3	.7139	.2861		.1392		.0047	
313.15	101.3	.8125	.1875		.1504		.0048	
313.15	101.3	.9017	.0983		.1733		.0111	
