Measured thermophysical data. Thermodynamic models for determination of the solid-liquid equilibrium of oxytocin in (acetonitrile + acetone) binary solvent mixtures
Source: Fluid Phase Equilib., 2016, 10.1016/j.fluid.2015.08.009
Compound 1: oxytocin, C43H66N12O12S2, purity 98%
Compound 2: acetonitrile, C2H3N, purity 99.7%
Compound 3: acetone, C3H6O, purity 99.7%

System: oxytocin + acetone + acetonitrile; phases: Liquid, Crystal
Fixed: Pressure, kPa = 101.3
Property: Mole fraction of oxytocin (Liquid); method: Gravimetric
Temperature, K	Solvent: Mole fraction of acetonitrile	Mole fraction of oxytocin	uncertainty
278.15	0	.000153	.00000153
278.15	.201	.000139	.00000139
278.15	.379	.000121	.00000121
278.15	.538	.000103	.00000103
278.15	.681	.000078	.00000078
278.15	.81	.000049	.00000049
278.15	.928	.000024	.00000024
278.15	1	.000011	.00000011
283.15	0	.000204	.00000204
283.15	.201	.00018	.0000018
283.15	.379	.000154	.00000154
283.15	.538	.000131	.00000131
283.15	.681	.0001	.000001
283.15	.81	.000064	.00000064
283.15	.928	.000032	.00000032
283.15	1	.000013	.00000013
288.15	0	.000272	.00000272
288.15	.201	.000235	.00000235
288.15	.379	.000201	.00000201
288.15	.538	.000168	.00000168
288.15	.681	.000128	.00000128
288.15	.81	.000083	.00000083
288.15	.928	.000041	.00000041
288.15	1	.000017	.00000017
293.15	0	.000364	.00000364
293.15	.201	.000312	.00000312
293.15	.379	.000263	.00000263
293.15	.538	.00022	.0000022
293.15	.681	.000169	.00000169
293.15	.81	.000105	.00000105
293.15	.928	.000052	.00000052
293.15	1	.000022	.00000022
298.15	0	.000479	.00000479
298.15	.201	.000411	.00000411
298.15	.379	.000343	.00000343
298.15	.538	.000285	.00000285
298.15	.681	.000216	.00000216
298.15	.81	.000134	.00000134
298.15	.928	.000065	.00000065
298.15	1	.000028	.00000028
303.15	0	.000625	.00000625
303.15	.201	.000535	.00000535
303.15	.379	.000444	.00000444
303.15	.538	.000364	.00000364
303.15	.681	.000273	.00000273
303.15	.81	.000169	.00000169
303.15	.928	.000081	.00000081
303.15	1	.000035	.00000035
308.15	0	.000811	.00000811
308.15	.201	.00069	.0000069
308.15	.379	.000568	.00000568
308.15	.538	.000464	.00000464
308.15	.681	.00034	.0000034
308.15	.81	.000208	.00000208
308.15	.928	.0001	.000001
308.15	1	.000044	.00000044
313.15	0	.001048	.00001048
313.15	.201	.000889	.00000889
313.15	.379	.000727	.00000727
313.15	.538	.000583	.00000583
313.15	.681	.000425	.00000425
313.15	.81	.000259	.00000259
313.15	.928	.000124	.00000124
313.15	1	.000056	.00000056
318.15	0	.001324	.00001324
318.15	.201	.001112	.00001112
318.15	.379	.00091	.0000091
318.15	.538	.000728	.00000728
318.15	.681	.000524	.00000524
318.15	.81	.000318	.00000318
318.15	.928	.000151	.00000151
318.15	1	.000069	.00000069
323.15	0	.001647	.00001647
323.15	.201	.001374	.00001374
323.15	.379	.001123	.00001123
323.15	.538	.000887	.00000887
323.15	.681	.000648	.00000648
323.15	.81	.000394	.00000394
323.15	.928	.000188	.00000188
323.15	1	.000085	.00000085
328.15	0	.002059	.00002059
328.15	.201	.001706	.00001706
328.15	.379	.001371	.00001371
328.15	.538	.001088	.00001088
328.15	.681	.000795	.00000795
328.15	.81	.000492	.00000492
328.15	.928	.000234	.00000234
328.15	1	.000104	.00000104
