Measured thermophysical data. Liquid-liquid phase equilibria in nicotine (aqueous) solutions
Source: Fluid Phase Equilib., 2011, 10.1016/j.fluid.2011.08.022
Compound 1: (-)-3-(N-methylpyrrolidino)pyridine, C10H14N2, purity 99%
Compound 2: 1-ethyl-3-methylimidazolium ethyl sulfate, C8H16N2O4S, purity 98%
Compound 3: sodium chloride, ClNa, purity 99.5%
Compound 4: trisodium phosphate, Na3O4P, purity 96%
Compound 5: water, H2O, purity 99.8%

System: (-)-3-(N-methylpyrrolidino)pyridine + sodium chloride + water; phases: Liquid mixture 1, Liquid mixture 2
Fixed: Pressure, kPa = 101
Property: Liquid-liquid equilibrium temperature, K (Liquid mixture 1); method: Visual observation
Mole fraction of sodium chloride	Mole fraction of (-)-3-(N-methylpyrrolidino)pyridine	Liquid-liquid equilibrium temperature, K	uncertainty
0	.07079	335.05	.5
.00298	.07058	329.35	.5
.00437	.07048	326.35	.5
.00646	.07033	323.25	.5
.00881	.07017	318.55	.5
.015	.06973	309.55	.5
.0167	.06961	306.35	.5
.01949	.06941	301.15	.5
.00322	.65889	373.15	.5
.00326	.65461	333.15	.5
.00407	.56876	315.65	.5
.00439	.5345	312.05	.5
.00467	.50512	307.75	.5
.00501	.4692	303.95	.5
.00534	.43361	300.05	.5
.00573	.39209	297.75	.5
.00629	.33277	299.55	.5
.00704	.25375	305.25	.5
.00704	.25315	305.15	.5
.00746	.20923	309.05	.5
.00806	.14478	313.16	.5
.00847	.10231	315.85	.5
.00877	.07027	318.55	.5
.00899	.04628	320.55	.5
.00917	.02786	323.15	.5
.00928	.01598	328.15	.5
.00931	.01288	333.15	.5
.00934	.00961	338.15	.5
.00936	.00699	353.15	.5

System: (-)-3-(N-methylpyrrolidino)pyridine + trisodium phosphate + water; phases: Liquid mixture 1, Liquid mixture 2
Fixed: Pressure, kPa = 101
Property: Liquid-liquid equilibrium temperature, K (Liquid mixture 1); method: Visual observation
Mole fraction of trisodium phosphate	Mole fraction of (-)-3-(N-methylpyrrolidino)pyridine	Liquid-liquid equilibrium temperature, K	uncertainty
0	.07079	335.05	.5
.00022	.07077	330.45	.5
.00047	.07076	327.45	.5
.00066	.07074	323.75	.5
.00088	.07073	320.12	.5
.00093	.07072	319.43	.5
.00004	.5997	373.15	.5
.00005	.58866	343.15	.5
.00005	.56756	328.15	.5
.00005	.55483	318.15	.5
.00005	.53318	308.15	.5
.00006	.4828	298.15	.5
.00006	.4745	283.15	.5
.00009	.18315	283.15	.5
.00009	.17803	298.15	.5
.00009	.17732	308.15	.5
.00009	.17647	318.15	.5
.00009	.17139	330.85	.5
.0001	.12775	332.45	.5
.0001	.0701	333.05	.5
.00011	.03671	333.95	.5
.00011	.01989	345.15	.5
.00011	.00611	363.15	.5
.00011	.0025	383.15	.5
.00008	.68559	383.15	.5
.00008	.67772	313.15	.5
.00008	.67498	323.15	.5
.00008	.67408	358.15	.5
.00008	.67226	333.15	.5
.00008	.67226	293.15	.5
.00008	.67181	303.15	.5
.00021	.12998	293.15	.5
.00021	.12887	308.15	.5
.00021	.12606	318.15	.5
.00021	.11922	323.15	.5
.00022	.10053	328.15	.5
.00022	.0708	330.45	.5
.00023	.04572	332.65	.5
.00023	.02695	336.45	.5
.00024	.01294	348.15	.5
.00024	.00649	363.15	.5
.00024	.00384	378.15	.5
.00024	.00251	398.15	.5

System: (-)-3-(N-methylpyrrolidino)pyridine + water + 1-ethyl-3-methylimidazolium ethyl sulfate; phases: Liquid mixture 1, Liquid mixture 2
Fixed: Pressure, kPa = 101
Property: Liquid-liquid equilibrium temperature, K (Liquid mixture 1); method: Visual observation
Mole fraction of 1-ethyl-3-methylimidazolium ethyl sulfate	Mole fraction of (-)-3-(N-methylpyrrolidino)pyridine	Liquid-liquid equilibrium temperature, K	uncertainty
0	.07079	335.05	.5
.00816	.07021	339.85	.5
.03071	.06862	343.35	.5
.04021	.06794	340.35	.5
.05481	.06691	334.65	.5
.06623	.0661	329.75	.5
.07971	.06515	321.65	.5
.08607	.0647	318.25	.5
.10388	.06344	305.85	.5
.11897	.06237	296.25	.5
.01125	.56888	393.15	.5
.01175	.54979	373.15	.5
.01268	.51416	363.15	.5
.01426	.45348	358.35	.5
.01609	.38358	354.95	.5
.01819	.30302	349.95	.5
.01944	.25522	349.35	.5
.02058	.21162	347.65	.5
.0218	.16459	346.25	.5
.02253	.13674	345.85	.5
.02356	.09745	343.35	.5
.02456	.05907	346.15	.5
.02524	.03296	363.15	.5
.0255	.0228	393.15	.5
.00652	.91507	298.15	.5
.00652	.91507	353.15	.5
.00623	.91878	393.15	.5
.04452	.41989	283.95	.5
.04658	.3931	299.15	.5
.04952	.35477	308.65	.5
.05791	.24541	321.15	.5
.06487	.15482	330.35	.5
.06902	.10077	326.65	.5
.07172	.06552	327.45	.5
.07377	.03887	338.15	.5
.07476	.02589	353.15	.5
.07531	.01879	373.15	.5
.07564	.01449	393.15	.5
.00484	.94319	273.15	.5
.00484	.94319	373.15	.5
.06431	.24586	273.15	.5
.06743	.20917	288.55	.5
.07193	.15647	302.25	.5
.07545	.11514	308.65	.5
.07776	.08811	314.05	.5
.07971	.06515	321.65	.5
.08209	.03725	330.65	.5
.0834	.02188	343.15	.5
.08426	.01187	353.15	.5
.08487	.00466	373.15	.5
.08504	.00268	393.15	.5
