Measured thermophysical data. Measurements of H2S solubility in aqueous diisopropanolamine solutions and  vapour pressure of diisopropanolamine
Source: Fluid Phase Equilib., 2013, 10.1016/j.fluid.2012.11.009
Compound 1: hydrogen sulfide, H2S, purity 99.9%
Compound 2: diisopropanolamine, C6H15NO2, purity 99.4%
Compound 3: water, H2O, purity 99.8%

System: diisopropanolamine; phases: Liquid, Gas
Property: Vapor or sublimation pressure, kPa (Liquid); method: Distillation
Temperature, K	Vapor or sublimation pressure, kPa	uncertainty
420	2.8	1.2
422	3	1.2
422	3.1	1.2
428	4	1.2
428	4.4	1.2
429	4.1	1.2
433	4.9	1.2
433	5.1	1.2
437	5.9	1.2
440	6.8	1.2
441	7	1.2
444	7.8	1.2
444	7.9	1.2
447	8.9	1.2
447	8.9	1.2
448	9.9	1.2
449	9.9	1.2
450	10.1	1.2
451	10.6	1.2
451	10.8	1.2
452	10.9	1.2
453	11.9	1.2
454	11.8	1.2
454	11.9	1.2
456	12.9	1.2
457	13.1	1.2
457	13.9	1.2
458	13.9	1.2
458	14	1.2
460	14.9	1.2
461	15.8	1.2
464	17.2	1.2
465	17.9	1.2

System: diisopropanolamine + water + hydrogen sulfide; phases: Gas, Liquid
Property: Vapor or sublimation pressure, kPa (Gas); method: Closed cell (Static) method
Mass fraction of hydrogen sulfide	Mass fraction of diisopropanolamine	Temperature, K	Vapor or sublimation pressure, kPa	uncertainty
0	.3691	295.32	2.8	1.3
0	.3691	303.22	3.8	1.3
0	.3691	313.3	6.9	1.3
0	.3691	323.55	11.8	1.3
0	.3691	333.75	19.3	1.3
0	.3691	343.96	30.6	1.3
0	.3691	354.17	46.3	1.3
.0297	.351	312.75	26.7	1.3
.0297	.351	322.57	34.9	1.3
.0297	.351	332.39	47.2	1.3
.0297	.351	342.25	65.2	1.3
.0297	.351	351.98	90.7	1.3
.0498	.3424	295.52	36.6	1.3
.0498	.3424	302.9	41.5	1.3
.0498	.3424	312.66	51	1.3
.0498	.3424	322.36	65.6	1.3
.0498	.3424	322.4	65.9	1.3
.0498	.3424	332.12	87.1	1.3
.0498	.3424	332.16	87.3	1.3
.0498	.3424	342	117.9	1.3
.0498	.3424	351.66	158.9	1.3
.0896	.3263	294.73	156.5	1.3
.0896	.3263	302.91	181.1	1.3
.0896	.3263	312.62	212.9	1.3
.0896	.3263	322.27	260.4	1.3
.0896	.3263	332.03	323.7	1.3
.0896	.3263	341.74	392.1	1.3
.0896	.3263	351.41	473.1	1.3
.0082	.3507	322.14	16.4	1.3
.0082	.3507	331.82	23.5	1.3
.0082	.3507	341.46	34	1.3
.0082	.3507	351.17	49.3	1.3
.0613	.29	294.82	50.5	1.3
.0613	.29	302.96	61.5	1.3
.0613	.29	312.79	81.1	1.3
.0613	.29	322.58	107.5	1.3
.0613	.29	332.47	143	1.3
.0613	.29	342.21	188.8	1.3
.0613	.29	352.24	246.2	1.3
.0098	.3051	312.8	11.2	1.3
.0098	.3051	322.65	16.1	1.3
.0098	.3051	332.52	24.1	1.3
.0098	.3051	342.41	35.5	1.3
.0098	.3051	352.31	52.3	1.3
.0233	.2999	312.81	22	1.3
.0233	.2999	322.66	29.1	1.3
.0233	.2999	332.47	40.1	1.3
.0233	.2999	342.36	55.9	1.3
.0233	.2999	352.2	78.6	1.3
.0119	.3023	312.67	13	1.3
.0157	.3015	312.83	15.4	1.3
.0119	.3023	322.39	18.3	1.3
.0157	.3015	322.68	21.3	1.3
.0119	.3023	332.03	26.5	1.3
.0157	.3015	332.56	30.2	1.3
.0119	.3023	342.02	38.5	1.3
.0157	.3015	342.45	43.8	1.3
.0157	.3015	352.44	63.1	1.3
.0119	.3023	352.44	57.8	1.3
.0128	.2078	313.14	13.8	1.3
.0128	.2078	323.63	20.3	1.3
.0128	.2078	333.51	29.3	1.3
.0128	.2078	342.86	42.4	1.3
.0128	.2078	352.83	61.7	1.3
.008	.2072	313.37	11.7	1.3
.008	.2072	323.59	17.4	1.3
.008	.2072	333.78	26.1	1.3
.008	.2072	343.73	38.7	1.3
.008	.2072	353.2	55.8	1.3
.008	.2072	353.78	57	1.3
.0052	.2065	312.82	9.9	1.3
.0052	.2065	322.66	15	1.3
.0052	.2065	332.53	22.5	1.3
.0052	.2065	342.43	34	1.3
.0052	.2065	352.5	49.9	1.3
.0353	.1997	294.3	24.6	1.3
.0353	.1997	303	30.9	1.3
.0353	.1997	303.12	30.3	1.3
.0353	.1997	313.13	40.9	1.3
.0353	.1997	322.76	55.7	1.3
.0353	.1997	322.81	55.5	1.3
.0353	.1997	332.7	76.6	1.3
.0353	.1997	337.67	89.9	1.3
.0077	.2035	313.33	12.5	1.3
.0077	.2035	323.45	18	1.3
.0077	.2035	333.66	26.5	1.3
.0077	.2035	343.92	39.2	1.3
.0077	.2035	353.93	57.7	1.3
.018	.1031	294.23	23.2	1.3
.018	.1031	303.02	28.1	1.3
.018	.1031	312.89	35	1.3
.005	.1043	313.41	12.8	1.3
.018	.1031	322.78	46	1.3
.005	.1043	323.53	17.6	1.3
.018	.1031	332.72	62.2	1.3
.005	.1043	333.83	25.6	1.3
.018	.1031	342.66	85.7	1.3
.005	.1043	343.81	37.2	1.3
.018	.1031	352.58	116.6	1.3
.005	.1043	354.2	53.9	1.3
.0266	.1016	294.97	72	1.3
.0266	.1016	303.01	85.3	1.3
.0266	.1016	312.9	104.2	1.3
.0266	.1016	322.76	128.5	1.3
.0266	.1016	332.73	158.5	1.3
.0266	.1016	342.6	195.7	1.3
.0266	.1016	352.56	242.7	1.3
.0088	.1024	312.84	17.9	1.3
.0088	.1024	322.67	24.3	1.3
.0088	.1024	332.53	33.6	1.3
.0088	.1024	342.82	47.5	1.3
