Measured thermophysical data. Thermodynamic analysis of the solubility of polymorphic cytarabine in a variety of pure solvents
Source: Fluid Phase Equilib., 2017, 10.1016/j.fluid.2017.04.021
Compound 1: cytarabine, C9H13N3O5
Compound 2: methanol, CH4O, purity 99%
Compound 3: ethanol, C2H6O, purity 99%
Compound 4: 1,2-ethanediol, C2H6O2, purity 99%
Compound 5: water, H2O, purity 99.8%

System: cytarabine; phases: Crystal 2, Liquid, Air at 1 atmosphere
Property: Normal melting temperature, K (Crystal 2); method: DSC/DTA
Normal melting temperature, K	uncertainty
486.33	1

System: cytarabine; phases: Crystal 1, Liquid, Air at 1 atmosphere
Property: Normal melting temperature, K (Crystal 1); method: DSC/DTA
Normal melting temperature, K	uncertainty
493.49	1

System: cytarabine; phases: Crystal 2, Liquid, Air at 1 atmosphere
Property: Molar enthalpy of transition or fusion, kJ/mol (Crystal 2); method: DSC
Molar enthalpy of transition or fusion, kJ/mol	uncertainty
53.75	.5

System: cytarabine; phases: Crystal 1, Liquid, Air at 1 atmosphere
Property: Molar enthalpy of transition or fusion, kJ/mol (Crystal 1); method: DSC
Molar enthalpy of transition or fusion, kJ/mol	uncertainty
40.55	.5

System: cytarabine + water; phases: Liquid, Crystal
Fixed: Pressure, kPa = 100
Property: Mole fraction of cytarabine (Liquid); method: gravimetric
Temperature, K	Mole fraction of cytarabine	uncertainty
293.15	.00808	
298.15	.00996	
303.15	.01379	
308.15	.01802	
313.15	.02115	
318.15	.02497	
323.15	.03008	
328.15	.03658	
333.15	.04238	

System: methanol + cytarabine; phases: Liquid, Crystal
Fixed: Pressure, kPa = 100
Property: Mole fraction of cytarabine (Liquid); method: gravimetric
Temperature, K	Mole fraction of cytarabine	uncertainty
293.15	.00076	
298.15	.00112	
303.15	.00126	
308.15	.00161	
313.15	.00181	
318.15	.0021	
323.15	.0024	
328.15	.00273	
333.15	.0032	

System: ethanol + cytarabine; phases: Liquid, Crystal
Fixed: Pressure, kPa = 100
Property: Mole fraction of cytarabine (Liquid); method: gravimetric
Temperature, K	Mole fraction of cytarabine	uncertainty
293.15	.00028	
298.15	.0003	
303.15	.00036	
308.15	.00051	
313.15	.00074	
318.15	.00126	
323.15	.00244	
328.15	.00449	
333.15	.00967	

System: 1,2-ethanediol + cytarabine; phases: Liquid, Crystal
Fixed: Pressure, kPa = 100
Property: Mole fraction of cytarabine (Liquid); method: gravimetric
Temperature, K	Mole fraction of cytarabine	uncertainty
293.15	.00035	
298.15	.00068	
303.15	.00165	
308.15	.00343	
313.15	.00647	
318.15	.00992	
323.15	.0142	
328.15	.02053	
333.15	.03131	
