Measured thermophysical data. Vapor pressure, heat capacities, and phase transitions of tetrakis(tert-butoxy)hafnium
Source: Fluid Phase Equilib., 2011, 10.1016/j.fluid.2011.08.011
Compound 1: tetrakis(tert-butoxy)hafnium, C16H36HfO4, purity 99.9%

System: tetrakis(tert-butoxy)hafnium; phases: Crystal, Liquid, Air at 1 atmosphere
Property: Molar enthalpy of transition or fusion, kJ/mol (Crystal); method: DSC/DTA
Molar enthalpy of transition or fusion, kJ/mol	uncertainty
32.3	1.3

System: tetrakis(tert-butoxy)hafnium; phases: Liquid, Gas
Property: Vapor or sublimation pressure, kPa (Liquid); method: Closed cell (Static) method
Temperature, K	Vapor or sublimation pressure, kPa	uncertainty
280.65	.00169	.000000845
280.65	.00172	.00000086
280.65	.00174	.00000087
283.15	.00214	.00000107
283.15	.00217	.000001085
283.15	.00219	.000001095
285.65	.00279	.000001395
285.65	.00282	.00000141
285.65	.00284	.00000142
288.15	.00361	.000001805
288.15	.00362	.00000181
288.15	.00364	.00000182
290.65	.00443	.000002215
290.65	.00442	.00000221
290.65	.00444	.00000222
293.15	.00563	.000002815
293.15	.00565	.000002825
293.15	.00564	.00000282
295.65	.00722	.00000361
295.65	.00722	.00000361
295.65	.0072	.0000036
298.15	.00874	.00000437
298.15	.00873	.000004365
298.15	.00873	.000004365
300.65	.01111	.000005555
300.65	.01107	.000005535
300.65	.01104	.00000552
303.15	.01348	.00000674
303.15	.01346	.00000673
303.15	.01346	.00000673
305.67	.01669	.000008345
305.67	.01664	.00000832
305.67	.0166	.0000083
308.17	.02071	.000010355
308.17	.02061	.000010305
308.17	.02059	.000010295

System: tetrakis(tert-butoxy)hafnium; phases: Liquid
Fixed: Pressure, kPa = 101.325
Property: Molar heat capacity at constant pressure, J/K/mol (Liquid); method: Small sample (50 mg) DSC
Temperature, K	Molar heat capacity at constant pressure, J/K/mol	uncertainty
293.83	596.3	5.963
298.94	598.9	5.989
304.04	601.3	6.013
309.15	604.8	6.048
314.25	604.8	6.048
319.35	612.6	6.126
324.46	614.2	6.142
329.56	616.6	6.166
334.66	626.3	6.263
339.77	631.5	6.315
344.88	635.3	6.353
349.98	635.5	6.355
293.83	598.5	5.985
298.94	598.2	5.982
304.04	601.8	6.018
309.15	600.7	6.007
314.25	602.9	6.029
319.35	614.6	6.146
324.46	613.8	6.138
329.56	621.7	6.217
334.66	625.9	6.259
339.77	628.5	6.285
344.88	638.1	6.381
349.98	635.9	6.359

System: tetrakis(tert-butoxy)hafnium; phases: Crystal, Liquid
Property: Solid-liquid equilibrium temperature, K (Crystal); method: DSC/DTA
Pressure, kPa	Solid-liquid equilibrium temperature, K	uncertainty
101.325	271.9	.2
101.325	271.8	.2
101.325	271.7	.2
101.325	271.7	.2
