Measured thermophysical data. Thermodynamic properties of aqueous solutions of pyridine and piperidine
Source: Fluid Phase Equilib., 2010, 10.1016/j.fluid.2009.10.018
Compound 1: pyridine, C5H5N
Compound 2: piperidine, C5H11N
Compound 3: water, H2O, purity 99.9%

System: pyridine; phases: Liquid
Fixed: Pressure, kPa = 101.325
Property: Mass density, kg/m3 (Liquid); method: Pycnometric method
Temperature, K	Mass density, kg/m3	uncertainty
293.95	981	.981
295.35	979.2	.9792
297.25	977.9	.9779
299.15	975.3	.9753
301.25	972.8	.9728
303.25	971.7	.9717
305.15	969.9	.9699
307.25	967.9	.9679
309.25	965.2	.9652
311.35	963.6	.9636
313.15	961.6	.9616
315.35	959.8	.9598
317.55	956.3	.9563
319.55	953.9	.9539
321.15	953.1	.9531

System: piperidine; phases: Liquid
Fixed: Pressure, kPa = 101.325
Property: Mass density, kg/m3 (Liquid); method: Pycnometric method
Temperature, K	Mass density, kg/m3	uncertainty
293.65	873.5	.8735
296.05	867.1	.8671
298.15	864.6	.8646
300.05	856.3	.8563
302.65	852.4	.8524
304.55	852.6	.8526
306.45	852.5	.8525
308.25	850.6	.8506
310.35	846.3	.8463
313.75	842.2	.8422
315.15	840.8	.8408
317.35	837.7	.8377
319.15	835.3	.8353
321.15	833.5	.8335
323.05	831.4	.8314

System: pyridine + water; phases: Liquid
Fixed: Pressure, kPa = 101
Fixed: Temperature, K = 297.15
Property: Excess molar enthalpy (molar enthalpy of mixing), kJ/mol (Liquid); method: Constant Pressure Calorimeter
Mole fraction of water	Excess molar enthalpy (molar enthalpy of mixing), kJ/mol	uncertainty
0	0	0
.05	.1171	.002342
.1	.2554	.005108
.15	.4601	.009202
.2	.6537	.013074
.25	.8769	.017538
.3	1.0317	.020634
.35	1.1873	.023746
.4	1.3787	.027574
.45	1.5649	.031298
.5	1.6282	.032564
.55	1.6225	.03245
.6	1.5798	.031596
.65	1.53	.0306
.7	1.3897	.027794
.73	1.33	.0266
.89	.6463	.012926
.92	.5083	.010166
.95	.3363	.006726
.98	.1521	.003042
1	0	0

System: pyridine + water; phases: Liquid
Fixed: Pressure, kPa = 101
Fixed: Mole fraction of water = 0
Property: Partial molar volume, m3/mol of water (Liquid); method: Derived analytically
Temperature, K	Partial molar volume, m3/mol of water	uncertainty
294.05	.00001372	
303.55	.00001345	
313.95	.00001463	

System: pyridine + water; phases: Liquid
Fixed: Pressure, kPa = 101
Fixed: Mole fraction of pyridine = 0
Property: Partial molar volume, m3/mol of pyridine (Liquid); method: Derived analytically
Temperature, K	Partial molar volume, m3/mol of pyridine	uncertainty
294.05	.00009831	
303.55	.00011392	
313.95	.00010307	

System: piperidine + water; phases: Liquid
Fixed: Pressure, kPa = 101
Fixed: Temperature, K = 297.15
Property: Excess molar enthalpy (molar enthalpy of mixing), kJ/mol (Liquid); method: Constant Pressure Calorimeter
Mole fraction of water	Excess molar enthalpy (molar enthalpy of mixing), kJ/mol	uncertainty
0	0	0
.05	.3571	.007142
.09	.5156	.010312
.15	.7535	.01507
.21	1.1194	.022388
.25	1.4628	.029256
.3	1.6753	.033506
.35	1.8273	.036546
.4	1.9273	.038546
.45	1.9885	.03977
.5	2.1379	.042758
.55	2.225	.0445
.6	2.2185	.04437
.65	2.1825	.04365
.7	2.0704	.041408
.75	1.9642	.039284
.93	.9783	.019566
.96	.6637	.013274
.99	.2331	.004662
1	0	0

System: piperidine + water; phases: Liquid
Fixed: Pressure, kPa = 101
Fixed: Mole fraction of water = 0
Property: Partial molar volume, m3/mol of water (Liquid); method: Derived analytically
Temperature, K	Partial molar volume, m3/mol of water	uncertainty
294.75	.00000906	
305.65	.00000907	
315.35	.00000929	

System: piperidine + water; phases: Liquid
Fixed: Pressure, kPa = 101
Fixed: Mole fraction of piperidine = 0
Property: Partial molar volume, m3/mol of piperidine (Liquid); method: Derived analytically
Temperature, K	Partial molar volume, m3/mol of piperidine	uncertainty
294.75	.00011837	
305.65	.00011467	
315.35	.00008804	
