Measured thermophysical data. Volumetric behavior of the binary systems benzene + cyclohexane and  benzene + 2,2,4-trimethyl-pentane at temperatures 293.15-323.15K
Source: Fluid Phase Equilib., 2011, 10.1016/j.fluid.2011.01.018
Compound 1: benzene, C6H6
Compound 2: cyclohexane, C6H12
Compound 3: 2,2,4-trimethylpentane, C8H18

System: benzene; phases: Liquid
Property: Mass density, kg/m3 (Liquid); method: Vibrating tube method
Temperature, K	Pressure, kPa	Mass density, kg/m3	uncertainty
293	101	878.98	.05
303	101	868.3	.05
313	101	857.57	.05
323	101	846.76	.05

System: cyclohexane; phases: Liquid
Property: Mass density, kg/m3 (Liquid); method: Vibrating tube method
Temperature, K	Pressure, kPa	Mass density, kg/m3	uncertainty
293	101	778.54	.05
303	101	769.13	.05
313	101	759.6	.05
323	101	749.94	.05

System: 2,2,4-trimethylpentane; phases: Liquid
Property: Mass density, kg/m3 (Liquid); method: Vibrating tube method
Temperature, K	Pressure, kPa	Mass density, kg/m3	uncertainty
293	101	691.88	.05
303	101	683.64	.05
313	101	675.3	.05
323	101	666.84	.05

System: benzene + cyclohexane; phases: Liquid
Fixed: Pressure, kPa = 101
Property: Mass density, kg/m3 (Liquid); method: Vibrating tube method
Temperature, K	Mole fraction of benzene	Mass density, kg/m3	uncertainty
293	0	778.54	.05
293	.1	784.99	.05
293	.1805	790.71	.05
293	.2347	794.92	.05
293	.3029	800.47	.05
293	.3801	807.1	.05
293	.4453	813.09	.05
293	.5223	820.56	.05
293	.5814	826.62	.05
293	.6563	834.72	.05
293	.7135	841.21	.05
293	.7654	847.44	.05
293	.8191	854.16	.05
293	.8771	861.75	.05
293	.9161	867.03	.05
293	1	878.98	.05
303	0	769.13	.05
303	.1	775.47	.05
303	.1805	781.14	.05
303	.2347	785.3	.05
303	.3029	790.79	.05
303	.3801	797.33	.05
303	.4453	803.25	.05
303	.5223	810.63	.05
303	.5814	816.62	.05
303	.6563	824.62	.05
303	.7135	831.03	.05
303	.7654	837.18	.05
303	.8191	843.82	.05
303	.8771	851.31	.05
303	.9161	856.52	.05
303	1	868.3	.05
313	0	759.6	.05
313	.1	765.87	.05
313	.1805	771.46	.05
313	.2347	775.57	.05
313	.3029	781	.05
313	.3801	787.47	.05
313	.4453	793.32	.05
313	.5223	800.62	.05
313	.5814	806.53	.05
313	.6563	814.44	.05
313	.7135	820.77	.05
313	.7654	826.83	.05
313	.8191	833.39	.05
313	.8771	840.79	.05
313	.9161	845.95	.05
313	1	857.57	.05
323	0	749.94	.05
323	.1	756.14	.05
323	.1805	761.67	.05
323	.2347	765.73	.05
323	.3029	771.1	.05
323	.3801	777.5	.05
323	.4453	783.27	.05
323	.5223	790.48	.05
323	.5814	796.34	.05
323	.6563	804.14	.05
323	.7135	810.41	.05
323	.7654	816.41	.05
323	.8191	822.89	.05
323	.8771	830.19	.05
323	.9161	835.28	.05
323	1	846.76	.05

System: benzene + 2,2,4-trimethylpentane; phases: Liquid
Fixed: Pressure, kPa = 101
Property: Mass density, kg/m3 (Liquid); method: Vibrating tube method
Temperature, K	Mole fraction of benzene	Mass density, kg/m3	uncertainty
293	0	691.88	.05
293	.1248	704.06	.05
293	.1642	708.26	.05
293	.3682	733.74	.05
293	.4538	746.53	.05
293	.502	754.34	.05
293	.5388	760.7	.05
293	.6023	772.44	.05
293	.6896	790.37	.05
293	.9443	859.13	.05
293	1	878.98	.05
303	0	683.64	.05
303	.1248	695.66	.05
303	.1642	699.8	.05
303	.3682	724.94	.05
303	.4538	737.57	.05
303	.502	745.27	.05
303	.5388	751.54	.05
303	.6023	763.15	.05
303	.6896	780.86	.05
303	.9443	848.73	.05
303	1	868.3	.05
313	0	675.3	.05
313	.1248	687.16	.05
313	.1642	691.24	.05
313	.3682	716.05	.05
313	.4538	728.51	.05
313	.502	736.12	.05
313	.5388	742.33	.05
313	.6023	753.77	.05
313	.6896	771.25	.05
313	.9443	838.26	.05
313	1	857.57	.05
323	0	666.84	.05
323	.1248	678.53	.05
323	.1642	682.55	.05
323	.3682	707.04	.05
323	.4538	719.33	.05
323	.502	726.85	.05
323	.5388	732.96	.05
323	.6023	744.28	.05
323	.6896	761.54	.05
323	.9443	827.7	.05
323	1	846.76	.05
