Measured thermophysical data. Solid-liquid phase equilibrium for the ternary system urea  phosphate + ammonium dihydrogen phosphate + water at 25 and 55 .C
Source: Fluid Phase Equilib., 2012, 10.1016/j.fluid.2012.06.002
Compound 1: urea phosphate, CH7N2O5P, purity 99%
Compound 2: ammonium biphosphate, H6NO4P, purity 99%
Compound 3: water, H2O, purity 99.9%

System: urea phosphate + ammonium biphosphate + water; phases: Liquid
Fixed: Pressure, kPa = 101
Property: Mass density, kg/m3 (Liquid); method: Pycnometric method
Temperature, K	Mass fraction of urea phosphate	Mass fraction of ammonium biphosphate	Mass density, kg/m3	uncertainty
298.15	0	.293	1164	.05
298.15	.057	.29	1197	.05
298.15	.103	.288	1227	.05
298.15	.15	.287	1258	.05
298.15	.2	.282	1283	.05
298.15	.244	.274	1301	.05
298.15	.296	.263	1322	.05
298.15	.333	.253	1337	.05
298.15	.391	.234	1359	.05
298.15	.394	.231	1363	.05
298.15	.396	.229	1361	.05
298.15	.391	.234	1363	.05
298.15	.394	.239	1364	.05
298.15	.39	.236	1359	.05
298.15	.424	.203	1352	.05
298.15	.447	.173	1344	.05
298.15	.475	.13	1330	.05
298.15	.498	.094	1316	.05
298.15	.511	.064	1303	.05
298.15	.526	.03	1282	.05
298.15	.538	0	1260	.05
328.15	0	.436	1258	.05
328.15	.089	.418	1297	.05
328.15	.173	.399	1332	.05
328.15	.249	.376	1364	.05
328.15	.315	.352	1385	.05
328.15	.348	.34	1395	.05
328.15	.376	.327	1404	.05
328.15	.428	.301	1418	.05
328.15	.481	.271	1430	.05
328.15	.487	.269	1432	.05
328.15	.48	.264	1426	.05
328.15	.48	.273	1431	.05
328.15	.482	.268	1429	.05
328.15	.534	.217	1422	.05
328.15	.565	.18	1417	.05
328.15	.592	.153	1410	.05
328.15	.612	.133	1403	.05
328.15	.646	.096	1391	.05
328.15	.671	.071	1384	.05
328.15	.697	.044	1373	.05
328.15	.734	0	1359	.05

System: urea phosphate + ammonium biphosphate + water; phases: Liquid, Crystal
Fixed: Pressure, kPa = 101
Property: Mass fraction of urea phosphate (Liquid); method: Schreinemaker's method of wet residues
Temperature, K	Mass fraction of ammonium biphosphate	Mass fraction of urea phosphate	uncertainty
298.15	.293	0	.002
298.15	.29	.057	.002
298.15	.288	.103	.002
298.15	.287	.15	.002
298.15	.282	.2	.002
298.15	.274	.244	.002
298.15	.263	.296	.002
298.15	.253	.333	.002
323.15	.436	0	.002
323.15	.418	.089	.002
323.15	.399	.173	.002
323.15	.376	.249	.002
323.15	.352	.315	.002
323.15	.34	.348	.002
323.15	.327	.376	.002
323.15	.301	.428	.002

System: urea phosphate + ammonium biphosphate + water; phases: Liquid, Crystal of intercomponent compound 1
Fixed: Pressure, kPa = 101
Property: Mass fraction of urea phosphate (Liquid); method: Schreinemaker's method of wet residues
Temperature, K	Mass fraction of ammonium biphosphate	Mass fraction of urea phosphate	uncertainty
298.15	.234	.391	.002
298.15	.231	.394	.002
298.15	.229	.396	.002
298.15	.234	.391	.002
298.15	.239	.394	.002
298.15	.236	.39	.002
323.15	.271	.481	.002
323.15	.269	.487	.002
323.15	.264	.48	.002
323.15	.273	.48	.002
323.15	.268	.482	.002

System: urea phosphate + ammonium biphosphate + water; phases: Liquid, Crystal
Fixed: Pressure, kPa = 101
Property: Mass fraction of urea phosphate (Liquid); method: Schreinemaker's method of wet residues
Temperature, K	Mass fraction of ammonium biphosphate	Mass fraction of urea phosphate	uncertainty
298.15	.203	.424	.002
298.15	.173	.447	.002
298.15	.13	.475	.002
298.15	.094	.498	.002
298.15	.064	.511	.002
298.15	.03	.526	.002
298.15	0	.538	.002
323.15	.217	.534	.002
323.15	.18	.565	.002
323.15	.153	.592	.002
323.15	.133	.612	.002
323.15	.096	.646	.002
323.15	.071	.671	.002
323.15	.044	.697	.002
323.15	0	.734	.002
