Measured thermophysical data. Solid-liquid equilibria and the physical properties of binary systems of diphenyl carbonate, dimethyl carbonate, methyl phenyl carbonate, anisole, methanol and phenol
Source: Fluid Phase Equilib., 2014, 10.1016/j.fluid.2014.05.033
Compound 1: anisole, C7H8O
Compound 2: dimethyl carbonate, C3H6O3
Compound 3: diphenyl carbonate, C13H10O3, purity 99.8%
Compound 4: methanol, CH4O
Compound 5: methyl phenyl carbonate, C8H8O3
Compound 6: phenol, C6H6O

System: anisole; phases: Liquid
Fixed: Pressure, kPa = 101.325
Property: Mass density, kg/m3 (Liquid); method: Vibrating tube method
Temperature, K	Mass density, kg/m3	uncertainty
298.15	989.42	.05

System: anisole; phases: Liquid
Fixed: Pressure, kPa = 101.325
Property: Mass density, kg/m3 (Liquid); method: Vibrating tube method
Temperature, K	Mass density, kg/m3	uncertainty
288.15	996.56	.05
293.15	991.95	.05
298.15	989.09	.05
303.15	983.04	.05
308.15	978.34	.05
313.15	973.62	.05
318.15	969.99	.05

System: anisole; phases: Liquid
Fixed: Pressure, kPa = 101.325
Property: Refractive index (Na D-line) (Liquid); method: Standard Abbe refractometry
Temperature, K	Refractive index (Na D-line)	uncertainty
288.15	1.5198	.0001
293.15	1.5169	.0001
298.15	1.5143	.0001
303.15	1.5117	.0001
308.15	1.5092	.0001
313.15	1.5063	.0001
318.15	1.5041	.0001

System: anisole; phases: Liquid
Fixed: Pressure, kPa = 101.325
Property: Kinematic viscosity, m2/s (Liquid); method: Capillary tube (Ostwald; Ubbelohde) method
Temperature, K	Kinematic viscosity, m2/s	uncertainty
288.15	.000001123	.000000001
293.15	.000001041	.000000001
298.15	.000000971	.000000001
303.15	.000000899	.000000001
308.15	.000000839	.000000001
313.15	.000000789	.000000001
318.15	.00000074	.000000001

System: dimethyl carbonate; phases: Liquid
Fixed: Pressure, kPa = 101.325
Property: Mass density, kg/m3 (Liquid); method: Vibrating tube method
Temperature, K	Mass density, kg/m3	uncertainty
298.15	1063.26	.05

System: dimethyl carbonate; phases: Crystal, Liquid, Air at 1 atmosphere
Property: Normal melting temperature, K (Crystal); method: Visual observation
Normal melting temperature, K	uncertainty
278.16	.02

System: dimethyl carbonate; phases: Liquid
Fixed: Pressure, kPa = 101.325
Property: Mass density, kg/m3 (Liquid); method: Vibrating tube method
Temperature, K	Mass density, kg/m3	uncertainty
288.15	1077.16	.05
293.15	1070.18	.05
298.15	1063.26	.05
303.15	1056.23	.05
308.15	1049.85	.05
313.15	1043.04	.05
318.15	1036.51	.05

System: dimethyl carbonate; phases: Liquid
Fixed: Pressure, kPa = 101.325
Property: Refractive index (Na D-line) (Liquid); method: Standard Abbe refractometry
Temperature, K	Refractive index (Na D-line)	uncertainty
288.15	1.371	.0001
293.15	1.3688	.0001
298.15	1.3664	.0001
303.15	1.364	.0001
308.15	1.3618	.0001
313.15	1.3595	.0001
318.15	1.357	.0001

System: dimethyl carbonate; phases: Liquid
Fixed: Pressure, kPa = 101.325
Property: Kinematic viscosity, m2/s (Liquid); method: Capillary tube (Ostwald; Ubbelohde) method
Temperature, K	Kinematic viscosity, m2/s	uncertainty
288.15	.000000605	.000000001
293.15	.00000057	.000000001
298.15	.000000541	.000000001
303.15	.000000508	.000000001
308.15	.000000476	.000000001
313.15	.000000456	.000000001
318.15	.000000433	.000000001

System: diphenyl carbonate; phases: Liquid
Fixed: Pressure, kPa = 101.325
Property: Mass density, kg/m3 (Liquid); method: Vibrating tube method
Temperature, K	Mass density, kg/m3	uncertainty
358.15	1113.12	.05

System: diphenyl carbonate; phases: Crystal, Liquid, Air at 1 atmosphere
Property: Normal melting temperature, K (Crystal); method: Visual observation
Normal melting temperature, K	uncertainty
353.96	.02

System: diphenyl carbonate; phases: Crystal, Liquid, Air at 1 atmosphere
Property: Normal melting temperature, K (Crystal); method: Visual observation
Normal melting temperature, K	uncertainty
354.96	.02

System: methanol; phases: Liquid
Fixed: Pressure, kPa = 101.325
Property: Mass density, kg/m3 (Liquid); method: Vibrating tube method
Temperature, K	Mass density, kg/m3	uncertainty
298.15	786.59	.05

System: methanol; phases: Crystal, Liquid, Air at 1 atmosphere
Property: Normal melting temperature, K (Crystal); method: Visual observation
Normal melting temperature, K	uncertainty
175.15	.02

System: methanol; phases: Liquid
Fixed: Pressure, kPa = 101.325
Property: Mass density, kg/m3 (Liquid); method: Vibrating tube method
Temperature, K	Mass density, kg/m3	uncertainty
288.15	796.5	.05
293.15	791.46	.05
298.15	786.69	.05
303.15	782.03	.05
308.15	777.29	.05
313.15	772.51	.05
318.15	767.69	.05

System: methanol; phases: Liquid
Fixed: Pressure, kPa = 101.325
Property: Refractive index (Na D-line) (Liquid); method: Standard Abbe refractometry
Temperature, K	Refractive index (Na D-line)	uncertainty
288.15	1.3306	.0001
293.15	1.3285	.0001
298.15	1.3265	.0001
303.15	1.3245	.0001
308.15	1.3227	.0001
313.15	1.3208	.0001
318.15	1.3188	.0001

System: methanol; phases: Liquid
Fixed: Pressure, kPa = 101.325
Property: Kinematic viscosity, m2/s (Liquid); method: Capillary tube (Ostwald; Ubbelohde) method
Temperature, K	Kinematic viscosity, m2/s	uncertainty
288.15	.000000751	.000000001
293.15	.000000703	.000000001
298.15	.00000066	.000000001
303.15	.000000621	.000000001
308.15	.000000579	.000000001
313.15	.000000549	.000000001
318.15	.000000519	.000000001

System: methyl phenyl carbonate; phases: Liquid
Fixed: Pressure, kPa = 101.325
Property: Mass density, kg/m3 (Liquid); method: Vibrating tube method
Temperature, K	Mass density, kg/m3	uncertainty
298.15	1143.24	.05

System: methyl phenyl carbonate; phases: Crystal, Liquid, Air at 1 atmosphere
Property: Normal melting temperature, K (Crystal); method: Visual observation
Normal melting temperature, K	uncertainty
242.15	.02

System: methyl phenyl carbonate; phases: Liquid
Fixed: Pressure, kPa = 101.325
Property: Mass density, kg/m3 (Liquid); method: Vibrating tube method
Temperature, K	Mass density, kg/m3	uncertainty
288.15	1153.93	.05
293.15	1148.74	.05
298.15	1143.63	.05
303.15	1138.41	.05
308.15	1133.26	.05
313.15	1128.11	.05
318.15	1122.97	.05

System: methyl phenyl carbonate; phases: Liquid
Fixed: Pressure, kPa = 101.325
Property: Refractive index (Na D-line) (Liquid); method: Standard Abbe refractometry
Temperature, K	Refractive index (Na D-line)	uncertainty
288.15	1.4991	.0001
293.15	1.4965	.0001
298.15	1.4942	.0001
303.15	1.492	.0001
308.15	1.4896	.0001
313.15	1.4873	.0001
318.15	1.4853	.0001

System: methyl phenyl carbonate; phases: Liquid
Fixed: Pressure, kPa = 101.325
Property: Kinematic viscosity, m2/s (Liquid); method: Capillary tube (Ostwald; Ubbelohde) method
Temperature, K	Kinematic viscosity, m2/s	uncertainty
288.15	.000005143	.000000001
293.15	.000004275	.000000001
298.15	.000003665	.000000001
303.15	.000003196	.000000001
308.15	.000002816	.000000001
313.15	.000002486	.000000001
318.15	.000002235	.000000001

System: phenol; phases: Liquid
Fixed: Pressure, kPa = 101.325
Property: Mass density, kg/m3 (Liquid); method: Vibrating tube method
Temperature, K	Mass density, kg/m3	uncertainty
313.15	1058.51	.05

System: phenol; phases: Crystal, Liquid, Air at 1 atmosphere
Property: Normal melting temperature, K (Crystal); method: Visual observation
Normal melting temperature, K	uncertainty
314.05	.02

System: diphenyl carbonate + dimethyl carbonate; phases: Liquid, Crystal
Fixed: Pressure, kPa = 101
Property: Solid-liquid equilibrium temperature, K (Liquid); method: Visual observation
Mole fraction of dimethyl carbonate	Solid-liquid equilibrium temperature, K	uncertainty
0	353.96	.02
.1148	347.03	.02
.208	342.44	.02
.3037	337.98	.02
.4103	331.49	.02
.5112	324.37	.02
.6028	316.65	.02
.7059	306.69	.02
.7974	294.3	.02
.8999	275.12	.02

System: diphenyl carbonate + dimethyl carbonate; phases: Liquid, Crystal
Fixed: Pressure, kPa = 101
Property: Solid-liquid equilibrium temperature, K (Liquid); method: Visual observation
Mole fraction of dimethyl carbonate	Solid-liquid equilibrium temperature, K	uncertainty
.9507	275.91	.02
1	278.16	.02

System: methanol + diphenyl carbonate; phases: Liquid, Crystal
Fixed: Pressure, kPa = 101
Property: Solid-liquid equilibrium temperature, K (Liquid); method: Visual observation
Mole fraction of methanol	Solid-liquid equilibrium temperature, K	uncertainty
0	353.96	.02
.0479	350.55	.02
.098	346.96	.02
.2209	339.59	.02
.3006	335.9	.02
.4059	331.7	.02
.5006	328.01	.02
.6003	324.12	.02
.7001	322.59	.02
.7991	320.34	.02
.899	316.18	.02
.9497	311.18	.02
.9629	308.45	.02
.9725	304.61	.02

System: methanol + diphenyl carbonate; phases: Liquid, Crystal
Fixed: Pressure, kPa = 101
Property: Solid-liquid equilibrium temperature, K (Liquid); method: Visual observation
Mole fraction of methanol	Solid-liquid equilibrium temperature, K	uncertainty
1	175.15	.02

System: phenol + methyl phenyl carbonate; phases: Liquid, Crystal
Fixed: Pressure, kPa = 101
Property: Solid-liquid equilibrium temperature, K (Liquid); method: Visual observation
Mole fraction of phenol	Solid-liquid equilibrium temperature, K	uncertainty
0	242.15	.02
.08	233.11	.02
.1552	219.95	.02

System: phenol + methyl phenyl carbonate; phases: Liquid, Crystal
Fixed: Pressure, kPa = 101
Property: Solid-liquid equilibrium temperature, K (Liquid); method: Visual observation
Mole fraction of phenol	Solid-liquid equilibrium temperature, K	uncertainty
.3647	212.36	.02
.45	233.9	.02
.5274	248.68	.02
.6384	268.95	.02
.73	284.13	.02
.8279	297.18	.02
.9347	307.87	.02
1	314.05	.02

System: diphenyl carbonate + methyl phenyl carbonate; phases: Liquid, Crystal
Fixed: Pressure, kPa = 101
Property: Solid-liquid equilibrium temperature, K (Liquid); method: Visual observation
Mole fraction of diphenyl carbonate	Solid-liquid equilibrium temperature, K	uncertainty
0	242.15	.02

System: diphenyl carbonate + methyl phenyl carbonate; phases: Liquid, Crystal
Fixed: Pressure, kPa = 101
Property: Solid-liquid equilibrium temperature, K (Liquid); method: Visual observation
Mole fraction of diphenyl carbonate	Solid-liquid equilibrium temperature, K	uncertainty
.175	272.93	.02
.2693	295.02	.02
.4304	318.82	.02
.6307	335.15	.02
.8063	345.12	.02
.9	350.08	.02
1	354.96	.02
