Measured thermophysical data. Isobaric vapor-liquid equilibrium for the three binary systems of C14 - C16 n-alkane + methyl myristate at 5.00 kPa
Source: Fluid Phase Equilib., 2016, 10.1016/j.fluid.2015.08.015
Compound 1: n-tetradecane, C14H30, purity 99.0%
Compound 2: n-pentadecane, C15H32, purity 99.0%
Compound 3: n-hexadecane, C16H34, purity 99.0%
Compound 4: methyl myristate, C15H30O2, purity 99.0%

System: methyl myristate + n-tetradecane; phases: Liquid, Gas
Property: Boiling temperature at pressure P, K (Liquid); method: Ebulliometric method (Recirculating still)
Mole fraction of n-tetradecane	Pressure, kPa	Boiling temperature at pressure P, K	uncertainty
1	5	425.67	.02
.9113	5	426.85	.02
.8047	5	429.05	.02
.6837	5	431.84	.02
.5345	5	435.99	.02
.4725	5	438.2	.02
.3332	5	442.8	.02
.2497	5	446.45	.02
.1881	5	450.07	.02
.1278	5	454.05	.02
.063	5	458.95	.02
.0246	5	462.55	.02
0	5	465.35	.02

System: methyl myristate + n-tetradecane; phases: Gas, Liquid
Property: Mole fraction of n-tetradecane (Gas); method: Chromatography
Mole fraction of n-tetradecane	Pressure, kPa	Mole fraction of n-tetradecane	uncertainty
1	5	1	.02
.9113	5	.979	.02
.8047	5	.95	.02
.6837	5	.9105	.02
.5345	5	.8447	.02
.4725	5	.8107	.02
.3332	5	.7153	.02
.2497	5	.632	.02
.1881	5	.5435	.02
.1278	5	.4252	.02
.063	5	.252	.02
.0246	5	.1107	.02
0	5	0	.02

System: methyl myristate + n-pentadecane; phases: Liquid, Gas
Property: Boiling temperature at pressure P, K (Liquid); method: Ebulliometric method (Recirculating still)
Mole fraction of n-pentadecane	Pressure, kPa	Boiling temperature at pressure P, K	uncertainty
1	5	440.41	.02
.9434	5	441.22	.02
.8474	5	442.65	.02
.7132	5	444.84	.02
.6026	5	446.82	.02
.5126	5	449.05	.02
.3821	5	451.8	.02
.2493	5	455.73	.02
.1282	5	460.11	.02
.0439	5	463.2	.02
0	5	465.35	.02

System: methyl myristate + n-pentadecane; phases: Gas, Liquid
Property: Mole fraction of n-pentadecane (Gas); method: Chromatography
Mole fraction of n-pentadecane	Pressure, kPa	Mole fraction of n-pentadecane	uncertainty
1	5	1	.02
.9434	5	.9761	.02
.8474	5	.9325	.02
.7132	5	.8643	.02
.6026	5	.7973	.02
.5126	5	.7363	.02
.3821	5	.624	.02
.2493	5	.4672	.02
.1282	5	.2807	.02
.0439	5	.1136	.02
0	5	0	.02

System: methyl myristate + n-hexadecane; phases: Liquid, Gas
Property: Boiling temperature at pressure P, K (Liquid); method: Ebulliometric method (Recirculating still)
Mole fraction of n-hexadecane	Pressure, kPa	Boiling temperature at pressure P, K	uncertainty
1	5	454.24	.02
.9299	5	454.65	.02
.8059	5	455.41	.02
.7055	5	456.17	.02
.572	5	457.29	.02
.4562	5	458.56	.02
.3745	5	459.43	.02
.2581	5	460.86	.02
.1966	5	461.72	.02
.119	5	463.09	.02
.0542	5	464.21	.02
0	5	465.2	.02

System: methyl myristate + n-hexadecane; phases: Gas, Liquid
Property: Mole fraction of n-hexadecane (Gas); method: Chromatography
Mole fraction of n-hexadecane	Pressure, kPa	Mole fraction of n-hexadecane	uncertainty
1	5	1	.02
.9299	5	.9473	.02
.8059	5	.8515	.02
.7055	5	.771	.02
.572	5	.662	.02
.4562	5	.5598	.02
.3745	5	.4818	.02
.2581	5	.3607	.02
.1966	5	.2879	.02
.119	5	.1827	.02
.0542	5	.0874	.02
0	5	0	.02
