Measured thermophysical data. Interfacial tensions of systems comprising water, carbon dioxide and diluent gases at high pressures: Experimental measurements and modelling with SAFT-VR Mie and square-gradient theory
Source: Fluid Phase Equilib., 2016, 10.1016/j.fluid.2015.07.026
Compound 1: carbon dioxide, CO2, purity 99.995%
Compound 2: argon, Ar, purity 99.998%
Compound 3: water, H2O, purity 99.9%

System: carbon dioxide + argon + water; phases: Liquid, Gas
Property: Interfacial tension, N/m (Liquid); method: Pendant drop shape
Pressure, kPa	Temperature, K	Mole fraction of water	Interfacial tension, N/m	uncertainty
2000	297.75	.994	.0645	.001161
5000	297.75	.988	.0562	.0010116
10000	297.9	.983	.0446	.0008028
15000	297.93	.982	.0364	.0006552
20000	297.94	.982	.0311	.0005598
25000	297.95	.982	.0285	.000513
30000	297.96	.982	.0272	.0004896
40000	297.96	.982	.0253	.0004554
51000	297.98	.982	.0244	.0004392
2000	322.77	.997	.0626	.0011268
5000	322.77	.993	.056	.001008
10000	322.79	.989	.0476	.0008568
15000	322.77	.987	.0403	.0007254
20000	322.78	.986	.0355	.000639
25000	322.77	.985	.0323	.0005814
30000	322.79	.985	.0302	.0005436
40000	322.78	.984	.028	.000504
50000	322.77	.984	.0267	.0004806
2000	373.01	.998	.0565	.001017
5000	373.06	.996	.0525	.000945
10000	372.99	.993	.047	.000846
15000	372.99	.99	.0427	.0007686
20000	372.96	.989	.039	.000702
25000	372.95	.988	.0357	.0006426
30000	372.98	.987	.0329	.0005922
40000	372.98	.986	.0292	.0005256
50000	372.97	.985	.028	.000504
2000	448.28	.999	.042	.000756
5000	448.33	.997	.0398	.0007164
10000	448.35	.994	.0364	.0006552
15000	448.33	.991	.0338	.0006084
20000	448.34	.989	.0312	.0005616
25000	448.33	.988	.0292	.0005256
30000	448.35	.986	.0273	.0004914
40000	448.37	.984	.0246	.0004428
50000	448.38	.983	.0233	.0004194
2000	473.29	1	.0374	.0006732
5000	473.3	.997	.0355	.000639
10000	473.29	.995	.0325	.000585
15000	473.32	.992	.0301	.0005418
20000	473.35	.991	.028	.000504
25000	473.34	.989	.026	.000468
30000	473.31	.988	.0246	.0004428

System: carbon dioxide + argon + water; phases: Liquid, Gas
Property: Interfacial tension, N/m (Liquid); method: Pendant drop shape
Pressure, kPa	Temperature, K	Mole fraction of carbon dioxide	Interfacial tension, N/m	uncertainty
2000	297.75	.005	.0645	.001161
5000	297.75	.011	.0562	.0010116
10000	297.9	.015	.0446	.0008028
15000	297.93	.016	.0364	.0006552
20000	297.94	.016	.0311	.0005598
25000	297.95	.016	.0285	.000513
30000	297.96	.016	.0272	.0004896
40000	297.96	.015	.0253	.0004554
51000	297.98	.015	.0244	.0004392
2000	322.77	.003	.0626	.0011268
5000	322.77	.007	.056	.001008
10000	322.79	.011	.0476	.0008568
15000	322.77	.012	.0403	.0007254
20000	322.78	.013	.0355	.000639
25000	322.77	.013	.0323	.0005814
30000	322.79	.013	.0302	.0005436
40000	322.78	.013	.028	.000504
50000	322.77	.013	.0267	.0004806
2000	373.01	.002	.0565	.001017
5000	373.06	.004	.0525	.000945
10000	372.99	.007	.047	.000846
15000	372.99	.008	.0427	.0007686
20000	372.96	.01	.039	.000702
25000	372.95	.011	.0357	.0006426
30000	372.98	.011	.0329	.0005922
40000	372.98	.012	.0292	.0005256
50000	372.97	.012	.028	.000504
2000	448.28	.001	.042	.000756
5000	448.33	.003	.0398	.0007164
10000	448.35	.005	.0364	.0006552
15000	448.33	.007	.0338	.0006084
20000	448.34	.009	.0312	.0005616
25000	448.33	.01	.0292	.0005256
30000	448.35	.011	.0273	.0004914
40000	448.37	.013	.0246	.0004428
50000	448.38	.013	.0233	.0004194
2000	473.29	0	.0374	.0006732
5000	473.3	.002	.0355	.000639
10000	473.29	.005	.0325	.000585
15000	473.32	.006	.0301	.0005418
20000	473.35	.007	.028	.000504
25000	473.34	.008	.026	.000468
30000	473.31	.009	.0246	.0004428

System: argon + water; phases: Liquid, Gas
Property: Interfacial tension, N/m (Liquid); method: Pendant drop shape
Temperature, K	Pressure, kPa	Interfacial tension, N/m	uncertainty
298.01	2000	.0716	.0011456
298.01	5000	.0697	.0011152
298.01	10000	.0674	.0010784
298.01	15000	.0653	.0010448
298.01	20000	.0633	.0010128
298.01	25000	.0619	.0009904
298.01	30000	.0607	.0009712
298.01	40000	.0586	.0009376
298.01	50000	.057	.000912
323.16	2000	.0671	.0010736
323.16	5000	.0657	.0010512
323.16	10000	.0632	.0010112
323.16	15000	.0611	.0009776
323.16	20000	.0594	.0009504
323.16	25000	.0579	.0009264
323.16	30000	.0565	.000904
323.16	40000	.0545	.000872
323.16	50000	.0533	.0008528
373.28	2000	.0585	.000936
373.28	5000	.0572	.0009152
373.28	10000	.0555	.000888
373.28	15000	.0539	.0008624
373.28	20000	.0527	.0008432
373.28	25000	.0516	.0008256
373.28	30000	.0508	.0008128
373.28	40000	.0493	.0007888
373.28	50000	.0482	.0007712
448.07	2000	.0431	.0006896
448.07	5000	.0425	.00068
448.07	10000	.0413	.0006608
448.07	15000	.0403	.0006448
448.07	20000	.0395	.000632
448.07	25000	.0388	.0006208
448.07	30000	.0383	.0006128
448.07	40000	.0373	.0005968
448.07	50000	.0366	.0005856
473.53	2000	.0373	.0005968
473.53	5000	.0365	.000584
473.53	10000	.0356	.0005696
473.53	15000	.0348	.0005568
473.53	20000	.0341	.0005456
473.53	25000	.0337	.0005392
473.53	30000	.0331	.0005296
473.53	40000	.0329	.0005264
473.53	50000	.0328	.0005248
