Measured thermophysical data. Rheological behavior and physico-chemical properties of cetyltrimethylammonium salicylate in aqueous solutions
Source: Fluid Phase Equilib., 2014, 10.1016/j.fluid.2014.02.022
Compound 1: cetyltrimethylammonium salicylate, C26H47NO3, purity 98%
Compound 2: water, H2O, purity 99.9%

System: water + cetyltrimethylammonium salicylate; phases: Liquid
Fixed: Pressure, kPa = 101
Property: Electrical conductivity, S/m (Liquid); method: Alternating current cell with electrodes
Temperature, K	Molality, mol/kg of cetyltrimethylammonium salicylate	Electrical conductivity, S/m	uncertainty
293.15	0	0	0
293.15	.0164	.0000653	.000000653
293.15	.0323	.0001203	.000001203
293.15	.0489	.000188	.00000188
293.15	.0649	.000237	.00000237
293.15	.0812	.0002998	.000002998
293.15	.0977	.000355	.00000355
293.15	.114	.0003903	.000003903
293.15	.13	.000425	.00000425
293.15	.147	.00046	.0000046
293.15	.163	.000486	.00000486
293.15	.179	.00051	.0000051
293.15	.195	.00052	.0000052
293.15	.212	.00053	.0000053
293.15	.228	.00054	.0000054
293.15	.244	.00055	.0000055
293.15	.26	.00056	.0000056
293.15	.282	.00057	.0000057
293.15	.304	.000575	.00000575
293.15	.326	.000583	.00000583
293.15	.352	.000591	.00000591
293.15	.376	.000591	.00000591
298.15	0	0	0
298.15	.0164	.0001153	.000001153
298.15	.0323	.0002093	.000002093
298.15	.0489	.0003122	.000003122
298.15	.0649	.000407	.00000407
298.15	.0812	.000498	.00000498
298.15	.0977	.0005907	.000005907
298.15	.114	.0006889	.000006889
298.15	.13	.0007836	.000007836
298.15	.147	.000819	.00000819
298.15	.163	.000833	.00000833
298.15	.179	.00086	.0000086
298.15	.195	.000886	.00000886
298.15	.212	.000903	.00000903
298.15	.228	.000935	.00000935
298.15	.244	.000958	.00000958
298.15	.26	.000986	.00000986
298.15	.282	.001002	.00001002
298.15	.304	.001025	.00001025
298.15	.326	.001045	.00001045
298.15	.352	.001065	.00001065
298.15	.376	.001086	.00001086
298.15	.398	.001109	.00001109
298.15	.42	.001125	.00001125
298.15	.45	.001145	.00001145
303.15	0	0	0
303.15	.0164	.000148	.00000148
303.15	.0323	.000276	.00000276
303.15	.0489	.000416	.00000416
303.15	.0649	.000542	.00000542
303.15	.0812	.000673	.00000673
303.15	.0977	.000795	.00000795
303.15	.114	.000906	.00000906
303.15	.13	.001012	.00001012
303.15	.147	.001108	.00001108
303.15	.163	.001148	.00001148
303.15	.179	.001188	.00001188
303.15	.195	.001228	.00001228
303.15	.212	.001268	.00001268
303.15	.228	.001308	.00001308
303.15	.244	.001348	.00001348
303.15	.26	.001388	.00001388
303.15	.282	.001428	.00001428
303.15	.304	.001468	.00001468
303.15	.326	.001507	.00001507
303.15	.352	.001547	.00001547
303.15	.376	.001587	.00001587
303.15	.398	.001617	.00001617
303.15	.42	.001647	.00001647
303.15	.45	.001677	.00001677
303.15	.48	.001708	.00001708
303.15	.52	.001739	.00001739
303.15	.56	.00177	.0000177
308.15	0	0	0
308.15	.0164	.000194	.00000194
308.15	.0323	.000344	.00000344
308.15	.0489	.000504	.00000504
308.15	.0649	.000665	.00000665
308.15	.0812	.000817	.00000817
308.15	.0977	.000954	.00000954
308.15	.114	.001103	.00001103
308.15	.13	.001255	.00001255
308.15	.147	.001386	.00001386
308.15	.163	.001507	.00001507
308.15	.179	.00161	.0000161
308.15	.195	.00165	.0000165
308.15	.212	.00169	.0000169
308.15	.228	.001735	.00001735
308.15	.244	.00178	.0000178
308.15	.26	.001829	.00001829
308.15	.282	.001879	.00001879
308.15	.304	.001939	.00001939
308.15	.326	.001989	.00001989
308.15	.352	.002035	.00002035
308.15	.376	.002089	.00002089
308.15	.398	.002135	.00002135
308.15	.42	.00221	.0000221
308.15	.45	.00226	.0000226
308.15	.48	.00231	.0000231
308.15	.52	.002361	.00002361
308.15	.56	.002412	.00002412
313.15	0	0	0
313.15	.0164	.00017	.0000017
313.15	.0323	.000344	.00000344
313.15	.0489	.000517	.00000517
313.15	.0649	.000691	.00000691
313.15	.0812	.000859	.00000859
313.15	.0977	.001034	.00001034
313.15	.114	.001188	.00001188
313.15	.13	.001358	.00001358
313.15	.147	.001521	.00001521
313.15	.163	.001663	.00001663
313.15	.179	.001781	.00001781
313.15	.195	.001899	.00001899
313.15	.212	.002043	.00002043
313.15	.228	.002086	.00002086
313.15	.244	.002123	.00002123
313.15	.26	.002166	.00002166
313.15	.282	.002215	.00002215
313.15	.304	.00226	.0000226
313.15	.326	.002304	.00002304
313.15	.352	.002349	.00002349
313.15	.376	.002393	.00002393
313.15	.398	.002437	.00002437
313.15	.42	.002481	.00002481
313.15	.45	.002525	.00002525
313.15	.48	.002569	.00002569
313.15	.52	.002623	.00002623
313.15	.56	.002687	.00002687
313.15	.6	.002727	.00002727
313.15	.64	.002767	.00002767
313.15	.68	.002807	.00002807
313.15	.72	.002845	.00002845
313.15	.76	.002885	.00002885
313.15	.8	.002925	.00002925
318.15	0	0	0
318.15	.0164	.000175	.00000175
318.15	.0323	.000374	.00000374
318.15	.0489	.000574	.00000574
318.15	.0649	.000799	.00000799
318.15	.0812	.000987	.00000987
318.15	.0977	.001174	.00001174
318.15	.114	.001358	.00001358
318.15	.13	.00156	.0000156
318.15	.147	.001767	.00001767
318.15	.163	.001947	.00001947
318.15	.179	.002117	.00002117
318.15	.195	.002267	.00002267
318.15	.212	.002417	.00002417
318.15	.228	.002547	.00002547
318.15	.244	.00262	.0000262
318.15	.26	.00269	.0000269
318.15	.282	.00277	.0000277
318.15	.304	.00284	.0000284
318.15	.326	.00291	.0000291
318.15	.352	.00299	.0000299
318.15	.376	.00306	.0000306
318.15	.398	.00313	.0000313
318.15	.42	.0032	.000032
318.15	.45	.00329	.0000329
318.15	.48	.00338	.0000338
318.15	.52	.00347	.0000347
318.15	.56	.00358	.0000358
318.15	.6	.00369	.0000369
318.15	.64	.0038	.000038
318.15	.68	.00391	.0000391
318.15	.72	.00402	.0000402
318.15	.76	.00413	.0000413
318.15	.8	.00424	.0000424
318.15	.84	.0043	.000043
318.15	.88	.00437	.0000437
318.15	.92	.00442	.0000442
318.15	.96	.00448	.0000448
323.15	0	0	0
323.15	.0164	.000231	.00000231
323.15	.0323	.000473	.00000473
323.15	.0489	.000709	.00000709
323.15	.0649	.000931	.00000931
323.15	.0812	.001163	.00001163
323.15	.0977	.001415	.00001415
323.15	.114	.001637	.00001637
323.15	.13	.001861	.00001861
323.15	.147	.002041	.00002041
323.15	.163	.002241	.00002241
323.15	.179	.002451	.00002451
323.15	.195	.002581	.00002581
323.15	.212	.002751	.00002751
323.15	.228	.002891	.00002891
323.15	.244	.003051	.00003051
323.15	.26	.003145	.00003145
323.15	.282	.003235	.00003235
323.15	.304	.003325	.00003325
323.15	.326	.003435	.00003435
323.15	.352	.003564	.00003564
323.15	.376	.003665	.00003665
323.15	.398	.00372	.0000372
323.15	.42	.003875	.00003875
323.15	.45	.003999	.00003999
323.15	.48	.004112	.00004112
323.15	.52	.004285	.00004285
323.15	.56	.00442	.0000442
323.15	.6	.004579	.00004579
323.15	.64	.004688	.00004688
323.15	.68	.004909	.00004909
323.15	.72	.005099	.00005099
323.15	.76	.005191	.00005191
323.15	.8	.005346	.00005346
323.15	.84	.005499	.00005499
323.15	.88	.00562	.0000562
323.15	.92	.005762	.00005762
323.15	.96	.005896	.00005896

System: water + cetyltrimethylammonium salicylate; phases: Liquid
Fixed: Pressure, kPa = 101
Property: Electrical conductivity, S/m (Liquid); method: Alternating current cell with electrodes
Mass fraction of cetyltrimethylammonium salicylate	Temperature, K	Electrical conductivity, S/m	uncertainty
.01	293.15	.0258	.000258
.02	293.15	.0621	.000621
.05	293.15	.0909	.000909
.07	293.15	.1123	.001123
.09	293.15	.1295	.001295
.1	293.15	.1352	.001352
.11	293.15	.1397	.001397
.12	293.15	.1405	.001405
.13	293.15	.1421	.001421
.15	293.15	.1503	.001503
.01	298.15	.025	.00025
.02	298.15	.0607	.000607
.05	298.15	.0868	.000868
.07	298.15	.106	.00106
.09	298.15	.1204	.001204
.1	298.15	.1273	.001273
.11	298.15	.13	.0013
.12	298.15	.1298	.001298
.13	298.15	.1342	.001342
.15	298.15	.1383	.001383
.01	303.15	.0243	.000243
.02	303.15	.0598	.000598
.05	303.15	.0834	.000834
.07	303.15	.1016	.001016
.09	303.15	.1156	.001156
.1	303.15	.1208	.001208
.11	303.15	.1222	.001222
.12	303.15	.1224	.001224
.13	303.15	.1254	.001254
.15	303.15	.1301	.001301
.01	308.15	.0238	.000238
.02	308.15	.059	.00059
.05	308.15	.0814	.000814
.07	308.15	.0966	.000966
.09	308.15	.1091	.001091
.1	308.15	.1129	.001129
.11	308.15	.1161	.001161
.12	308.15	.1149	.001149
.13	308.15	.1188	.001188
.15	308.15	.1236	.001236
.01	313.15	.0217	.000217
.02	313.15	.0578	.000578
.05	313.15	.077	.00077
.07	313.15	.0912	.000912
.09	313.15	.1031	.001031
.1	313.15	.106	.00106
.11	313.15	.109	.00109
.12	313.15	.1079	.001079
.13	313.15	.1116	.001116
.15	313.15	.1171	.001171
.01	318.15	.021	.00021
.02	318.15	.0574	.000574
.05	318.15	.0764	.000764
.07	318.15	.0887	.000887
.09	318.15	.0986	.000986
.1	318.15	.1013	.001013
.11	318.15	.1045	.001045
.12	318.15	.105	.00105
.13	318.15	.1078	.001078
.15	318.15	.1102	.001102
.01	323.15	.0161	.000161
.02	323.15	.0569	.000569
.05	323.15	.0735	.000735
.07	323.15	.0855	.000855
.09	323.15	.0953	.000953
.1	323.15	.0977	.000977
.11	323.15	.1021	.001021
.12	323.15	.1009	.001009
.13	323.15	.1052	.001052
.15	323.15	.108	.00108
