Measured thermophysical data. Reactive extraction of pimelic (heptanedioic) acid from dilute aqueous solutions using trioctylamine in decan-1-ol
Source: Fluid Phase Equilib., 2016, 10.1016/j.fluid.2016.02.039
Compound 1: pimelic acid, C7H12O4, purity 98%
Compound 2: trioctylamine, C24H51N, purity 95%
Compound 3: decan-1-ol, C10H22O, purity 98%
Compound 4: water, H2O, purity 99.8%

System: pimelic acid + decan-1-ol + water; phases: Liquid mixture 1, Liquid mixture 2
Fixed: Temperature, K = 298
Fixed: Pressure, kPa = 101.3
Property: Molality, mol/kg of pimelic acid (Liquid mixture 1); method: titration method
Molality, mol/kg of pimelic acid	Molality, mol/kg of pimelic acid	uncertainty
.013	.024	
.026	.049	
.038	.075	
.051	.099	
.058	.13	
