Measured thermophysical data. Hexyl dimethylpyridinium ionic liquids for desulfurization of fuels. Effect of the position of the alkyl side chains
Source: Fluid Phase Equilib., 2012, 10.1016/j.fluid.2011.10.017
Compound 1: 1-hexyl-2,4-dimethylpyridinium bis(trifluoromethylsulfonyl)imide, C15H22F6N2O4S2, purity 98%
Compound 2: toluene, C7H8, purity 99.5%
Compound 3: pyridine, C5H5N, purity 99.5%
Compound 4: hexane, C6H14, purity 99%
Compound 5: thiophene, C4H4S, purity 99.5%

System: 1-hexyl-2,4-dimethylpyridinium bis(trifluoromethylsulfonyl)imide; phases: Liquid
Fixed: Pressure, kPa = 101.325
Property: Mass density, kg/m3 (Liquid); method: Vibrating tube method
Temperature, K	Mass density, kg/m3	uncertainty
298.15	1339.39	.01

System: 1-hexyl-2,4-dimethylpyridinium bis(trifluoromethylsulfonyl)imide; phases: Liquid
Fixed: Pressure, kPa = 101.325
Property: Refractive index (Na D-line) (Liquid); method: Standard Abbe refractometry
Temperature, K	Refractive index (Na D-line)	uncertainty
298.15	1.45336	.00004

System: thiophene + hexane + 1-hexyl-2,4-dimethylpyridinium bis(trifluoromethylsulfonyl)imide; phases: Liquid mixture 2, Liquid mixture 1
Property: Mole fraction of 1-hexyl-2,4-dimethylpyridinium bis(trifluoromethylsulfonyl)imide (Liquid mixture 2); method: Chromatography
Property: Mole fraction of 1-hexyl-2,4-dimethylpyridinium bis(trifluoromethylsulfonyl)imide (Liquid mixture 1); method: Chromatography
Property: Mole fraction of thiophene (Liquid mixture 1); method: Chromatography
Temperature, K	Pressure, kPa	Mole fraction of thiophene	Mole fraction of 1-hexyl-2,4-dimethylpyridinium bis(trifluoromethylsulfonyl)imide	uncertainty	Mole fraction of 1-hexyl-2,4-dimethylpyridinium bis(trifluoromethylsulfonyl)imide	uncertainty	Mole fraction of thiophene	uncertainty
298.15	101.325	0	0	.005	.833	.005	0	.005
298.15	101.325	.745	0	.005	.172	.005	.743	.005
298.15	101.325	.892	0	.005	.135	.005	.815	.005
298.15	101.325	1	0	.005	.108	.005	.892	.005
298.15	101.325	.039	0	.005	.704	.005	.14	.005
298.15	101.325	.072	0	.005	.627	.005	.23	.005
298.15	101.325	.167	0	.005	.464	.005	.402	.005
298.15	101.325	.273	0	.005	.366	.005	.515	.005
298.15	101.325	.414	0	.005	.29	.005	.608	.005
298.15	101.325	.481	0	.005	.261	.005	.636	.005
298.15	101.325	.568	0	.005	.225	.005	.67	.005
298.15	101.325	.655	0	.005	.202	.005	.702	.005

System: toluene + thiophene + 1-hexyl-2,4-dimethylpyridinium bis(trifluoromethylsulfonyl)imide; phases: Liquid mixture 2, Liquid mixture 1
Property: Mole fraction of 1-hexyl-2,4-dimethylpyridinium bis(trifluoromethylsulfonyl)imide (Liquid mixture 2); method: Chromatography
Property: Mole fraction of thiophene (Liquid mixture 1); method: Chromatography
Property: Mole fraction of 1-hexyl-2,4-dimethylpyridinium bis(trifluoromethylsulfonyl)imide (Liquid mixture 1); method: Chromatography
Temperature, K	Pressure, kPa	Mole fraction of thiophene	Mole fraction of 1-hexyl-2,4-dimethylpyridinium bis(trifluoromethylsulfonyl)imide	uncertainty	Mole fraction of thiophene	uncertainty	Mole fraction of 1-hexyl-2,4-dimethylpyridinium bis(trifluoromethylsulfonyl)imide	uncertainty
298.15	101.325	0	0	.005	0	.005	.167	.005
298.15	101.325	.766	0	.005	.692	.005	.124	.005
298.15	101.325	.847	0	.005	.762	.005	.116	.005
298.15	101.325	.913	0	.005	.818	.005	.114	.005
298.15	101.325	.956	0	.005	.85	.005	.115	.005
298.15	101.325	1	0	.005	.892	.005	.108	.005
298.15	101.325	.031	0	.005	.03	.005	.169	.005
298.15	101.325	.093	0	.005	.088	.005	.181	.005
298.15	101.325	.18	0	.005	.172	.005	.166	.005
298.15	101.325	.282	0	.005	.265	.005	.161	.005
298.15	101.325	.411	0	.005	.38	.005	.152	.005
298.15	101.325	.523	0	.005	.484	.005	.137	.005
298.15	101.325	.57	0	.005	.522	.005	.138	.005
298.15	101.325	.669	0	.005	.61	.005	.131	.005

System: hexane + pyridine + 1-hexyl-2,4-dimethylpyridinium bis(trifluoromethylsulfonyl)imide; phases: Liquid mixture 1, Liquid mixture 2
Property: Mole fraction of 1-hexyl-2,4-dimethylpyridinium bis(trifluoromethylsulfonyl)imide (Liquid mixture 1); method: Chromatography
Property: Mole fraction of pyridine (Liquid mixture 2); method: Chromatography
Property: Mole fraction of 1-hexyl-2,4-dimethylpyridinium bis(trifluoromethylsulfonyl)imide (Liquid mixture 2); method: Chromatography
Temperature, K	Pressure, kPa	Mole fraction of pyridine	Mole fraction of 1-hexyl-2,4-dimethylpyridinium bis(trifluoromethylsulfonyl)imide	uncertainty	Mole fraction of pyridine	uncertainty	Mole fraction of 1-hexyl-2,4-dimethylpyridinium bis(trifluoromethylsulfonyl)imide	uncertainty
298.15	101.325	0	.833	.005	0	.005	0	.005
298.15	101.325	.736	.085	.005	.411	.005	0	.005
298.15	101.325	.145	.714	.005	.001	.005	.005	.005
298.15	101.325	.262	.605	.005	.03	.005	.004	.005
298.15	101.325	.378	.489	.005	.059	.005	.005	.005
298.15	101.325	.467	.407	.005	.089	.005	.005	.005
298.15	101.325	.562	.312	.005	.126	.005	.003	.005
298.15	101.325	.638	.241	.005	.168	.005	.003	.005
298.15	101.325	.688	.177	.005	.244	.005	.004	.005
298.15	101.325	.732	.109	.005	.334	.005	.002	.005
