Measured thermophysical data. Effect of the chemical structures of iron complexes on the solubilities in supercritical carbon dioxide
Source: Fluid Phase Equilib., 2011, 10.1016/j.fluid.2011.05.008
Compound 1: ferrocene, C10H10Fe, purity 99%
Compound 2: carbon dioxide, CO2, purity 99.995%
Compound 3: bis(2,4-pentanedionato)iron, C10H14FeO4, purity 99%
Compound 4: iron, tris(2,4-pentanedionato-O,O')-, (oc-6-11)-, C15H21FeO6, purity 97%

System: ferrocene + carbon dioxide; phases: Fluid (supercritical or subcritical phases), Crystal
Property: Mole fraction of ferrocene (Fluid (supercritical or subcritical phases)); method: UV-vis spectrometry
Temperature, K	Pressure, kPa	Mole fraction of ferrocene	uncertainty
313	12100	.00137	.000137
313	15000	.00173	.000173
313	20000	.00184	.000184
333	10000	.000238	.0000238
333	12000	.000659	.0000659
333	12500	.000822	.0000822
333	15000	.00179	.000179
333	17500	.00231	.000231
333	20000	.00241	.000241

System: carbon dioxide + bis(2,4-pentanedionato)iron; phases: Fluid (supercritical or subcritical phases), Crystal
Property: Mole fraction of bis(2,4-pentanedionato)iron (Fluid (supercritical or subcritical phases)); method: UV-vis spectrometry
Temperature, K	Pressure, kPa	Mole fraction of bis(2,4-pentanedionato)iron	uncertainty
313	10000	.000104	.0000104
313	12000	.000215	.0000215
313	12600	.000252	.0000252
313	14100	.00029	.000029
313	15000	.000325	.0000325
313	17600	.000425	.0000425
313	20100	.000494	.0000494
333	10000	.0000112	.00000112
333	12100	.0000564	.00000564
333	12600	.0000912	.00000912
333	15000	.000334	.0000334
333	17600	.000449	.0000449
333	20100	.000589	.0000589

System: carbon dioxide + iron, tris(2,4-pentanedionato-O,O')-, (oc-6-11)-; phases: Fluid (supercritical or subcritical phases), Crystal
Property: Mole fraction of iron, tris(2,4-pentanedionato-O,O')-, (oc-6-11)- (Fluid (supercritical or subcritical phases)); method: UV-vis spectrometry
Temperature, K	Pressure, kPa	Mole fraction of iron, tris(2,4-pentanedionato-O,O')-, (oc-6-11)-	uncertainty
313	10100	.0000667	.00000667
313	12000	.000116	.0000116
313	12600	.000119	.0000119
313	15000	.000177	.0000177
313	17600	.000214	.0000214
333	10100	.00000495	.000000495
333	12600	.0000467	.00000467
333	15000	.000149	.0000149
333	17500	.000196	.0000196
333	20100	.000295	.0000295
