Measured thermophysical data. Solubility of ionic liquids in 2-phenylethanol (PEA) and water
Source: Fluid Phase Equilib., 2014, 10.1016/j.fluid.2014.05.034
Compound 1: 1-ethyl-1-methylpiperidinium bis(trifluoromethylsulfonyl)imide, C10H18F6N2O4S2, purity 99%
Compound 2: 1-methyl-1-propylpiperidinium bis(trifluoromethylsulfonyl)imide, C11H20F6N2O4S2, purity 99%
Compound 3: 1-butyl-1-methylpiperidinium bis(trifluoromethanesulfonyl)imide, C12H22F6N2O4S2, purity 99%
Compound 4: 1-hexyl-1-methylpiperidinium bis(trifluoromethylsulfonyl)imide, C14H26F6N2O4S2, purity 99%
Compound 5: 1-hexylquinolinium bis(trifluoromethylsulfonyl)amide, C17H20F6N2O4S2
Compound 6: N-hexylisoquinolinium bis(trifluoromethylsulfonyl)imide, C17H20F6N2O4S2
Compound 7: 1-(cyanomethyl)-3-methylimidazolium 4,5-dicyano-2-(trifluoromethyl)imidazolide, C12H8F3N7
Compound 8: 1-butyl-3-methylimidazolium 4,5-dicyano-2-(trifluoromethyl)imidazolide, C14H15F3N6
Compound 9: 2-phenylethanol, C8H10O, purity 99%
Compound 10: water, H2O, purity 99.9%

System: 1-ethyl-1-methylpiperidinium bis(trifluoromethylsulfonyl)imide; phases: Crystal, Liquid, Air at 1 atmosphere
Property: Normal melting temperature, K (Crystal); method: Visual observation
Normal melting temperature, K	uncertainty
355.9	.2

System: 1-hexylquinolinium bis(trifluoromethylsulfonyl)amide; phases: Crystal, Liquid, Air at 1 atmosphere
Property: Normal melting temperature, K (Crystal); method: Visual observation
Normal melting temperature, K	uncertainty
318	.2

System: N-hexylisoquinolinium bis(trifluoromethylsulfonyl)imide; phases: Crystal, Liquid, Air at 1 atmosphere
Property: Normal melting temperature, K (Crystal); method: Visual observation
Normal melting temperature, K	uncertainty
328.3	.2

System: 1-(cyanomethyl)-3-methylimidazolium 4,5-dicyano-2-(trifluoromethyl)imidazolide; phases: Crystal, Liquid, Air at 1 atmosphere
Property: Normal melting temperature, K (Crystal); method: Visual observation
Normal melting temperature, K	uncertainty
366.1	.2

System: 2-phenylethanol; phases: Crystal, Liquid, Air at 1 atmosphere
Property: Normal melting temperature, K (Crystal); method: Visual observation
Normal melting temperature, K	uncertainty
366.1	.2

System: 2-phenylethanol + 1-ethyl-1-methylpiperidinium bis(trifluoromethylsulfonyl)imide; phases: Liquid, Crystal
Fixed: Pressure, kPa = 101
Property: Solid-liquid equilibrium temperature, K (Liquid); method: DSC/DTA
Mole fraction of 1-ethyl-1-methylpiperidinium bis(trifluoromethylsulfonyl)imide	Solid-liquid equilibrium temperature, K	uncertainty
1	355.9	.2
.9565	349.7	.2
.8862	340.7	.2
.814	330.8	.2
.7573	325	.2
.707	319.2	.2
.6473	312.8	.2
.6201	309	.2
.5944	304.9	.2
.5385	297.6	.2
.4892	291.5	.2
.4365	285.7	.2
.4011	281.8	.2
.3423	276.2	.2
.3078	272.4	.2
.2493	267.6	.2

System: 2-phenylethanol + 1-hexylquinolinium bis(trifluoromethylsulfonyl)amide; phases: Liquid, Crystal
Fixed: Pressure, kPa = 101
Property: Solid-liquid equilibrium temperature, K (Liquid); method: Visual observation
Mole fraction of 1-hexylquinolinium bis(trifluoromethylsulfonyl)amide	Solid-liquid equilibrium temperature, K	uncertainty
1	318	.2
.9281	316.6	.2
.8828	315	.2
.8299	313.8	.2
.7804	311.5	.2
.7348	309.9	.2
.6816	308.1	.2
.6318	306.3	.2
.5812	304.5	.2
.5371	302	.2
.4934	298.7	.2
.4378	295.9	.2

System: 2-phenylethanol + N-hexylisoquinolinium bis(trifluoromethylsulfonyl)imide; phases: Liquid, Crystal
Fixed: Pressure, kPa = 101
Property: Solid-liquid equilibrium temperature, K (Liquid); method: Visual observation
Mole fraction of N-hexylisoquinolinium bis(trifluoromethylsulfonyl)imide	Solid-liquid equilibrium temperature, K	uncertainty
1	328.3	.2
.9395	326.2	.2
.8874	325.2	.2
.8396	324.4	.2
.7783	322.6	.2
.7236	321	.2
.6707	318.9	.2
.6207	316	.2
.5613	313	.2
.5077	309.7	.2
.443	304.8	.2
.4077	301.1	.2
.3583	297.1	.2
.3026	291.5	.2
.2449	285.7	.2
.2036	281	.2

System: 1-(cyanomethyl)-3-methylimidazolium 4,5-dicyano-2-(trifluoromethyl)imidazolide + 2-phenylethanol; phases: Liquid, Crystal
Fixed: Pressure, kPa = 101
Property: Solid-liquid equilibrium temperature, K (Liquid); method: Visual observation
Mole fraction of 2-phenylethanol	Solid-liquid equilibrium temperature, K	uncertainty
1	366.1	.2
.9339	365.7	.2
.8003	361.1	.2
.6902	355.7	.2
.6359	353.5	.2
.613	352.6	.2
.535	349.6	.2
.458	346.6	.2
.38	343.6	.2
.303	340.5	.2
.225	337.5	.2
.148	334.5	.2
.071	331.5	.2

System: water + 1-butyl-1-methylpiperidinium bis(trifluoromethanesulfonyl)imide; phases: Liquid mixture 1, Liquid mixture 2
Fixed: Pressure, kPa = 101.33
Property: Liquid-liquid equilibrium temperature, K (Liquid mixture 1); method: UV- VIS Spectrophotometer
Mole fraction of 1-butyl-1-methylpiperidinium bis(trifluoromethanesulfonyl)imide	Liquid-liquid equilibrium temperature, K	uncertainty
.8447	279.9	.2
.8186	289.8	.2
.7755	301.3	.2
.7524	310.4	.2
.7267	318.3	.2
.7066	326	.2
.6801	330	.2
.646	340.9	.2

System: water + 1-hexyl-1-methylpiperidinium bis(trifluoromethylsulfonyl)imide; phases: Liquid mixture 1, Liquid mixture 2
Fixed: Pressure, kPa = 101.33
Property: Liquid-liquid equilibrium temperature, K (Liquid mixture 1); method: UV-VIS spectrophotometer
Mole fraction of 1-hexyl-1-methylpiperidinium bis(trifluoromethylsulfonyl)imide	Liquid-liquid equilibrium temperature, K	uncertainty
.8752	278	.2
.8509	287.2	.2
.8255	293.8	.2
.8061	301.8	.2
.777	307.8	.2
.7316	323.1	.2
.7044	330.5	.2
.6451	346.5	.2

System: water + 1-hexylquinolinium bis(trifluoromethylsulfonyl)amide; phases: Liquid mixture 1, Liquid mixture 2
Fixed: Pressure, kPa = 101.33
Property: Liquid-liquid equilibrium temperature, K (Liquid mixture 1); method: Visual observation
Mole fraction of 1-hexylquinolinium bis(trifluoromethylsulfonyl)amide	Liquid-liquid equilibrium temperature, K	uncertainty
.5182	311.4	.2
.4714	320.3	.2
.4208	333.4	.2
.3872	337.5	.2
.3463	342.7	.2
.0000296	328.2	.2
.0000274	323.2	.2
.0000262	318.2	.2
.0000252	313.2	.2

System: water + 1-hexylquinolinium bis(trifluoromethylsulfonyl)amide; phases: Liquid, Crystal
Fixed: Pressure, kPa = 101.33
Property: Solid-liquid equilibrium temperature, K (Liquid); method: Visual observation
Mole fraction of 1-hexylquinolinium bis(trifluoromethylsulfonyl)amide	Solid-liquid equilibrium temperature, K	uncertainty
1	318	.2
.9829	316.6	.2
.9198	315.3	.2
.871	314.4	.2
.6945	307.7	.2
.6493	306.1	.2
.5948	302.9	.2

System: water + N-hexylisoquinolinium bis(trifluoromethylsulfonyl)imide; phases: Liquid, Crystal
Fixed: Pressure, kPa = 101.33
Property: Solid-liquid equilibrium temperature, K (Liquid); method: Visual observation
Mole fraction of N-hexylisoquinolinium bis(trifluoromethylsulfonyl)imide	Solid-liquid equilibrium temperature, K	uncertainty
1	328.3	.2
.9544	328	.2
.8895	327.2	.2
.8329	326.4	.2
.7622	325.8	.2
.7121	324.5	.2

System: water + N-hexylisoquinolinium bis(trifluoromethylsulfonyl)imide; phases: Liquid mixture 1, Liquid mixture 2
Fixed: Pressure, kPa = 101.33
Property: Liquid-liquid equilibrium temperature, K (Liquid mixture 1); method: UV-VIS spectrophotometer
Mole fraction of N-hexylisoquinolinium bis(trifluoromethylsulfonyl)imide	Liquid-liquid equilibrium temperature, K	uncertainty
.6319	337	.2
.5689	345.9	.2
.5073	350.6	.2
.4612	354.4	.2
.0000586	343.2	.2
.000038	338.2	.2
.000036	333.2	.2
.000031	328.2	.2

System: 1-(cyanomethyl)-3-methylimidazolium 4,5-dicyano-2-(trifluoromethyl)imidazolide + water; phases: Liquid mixture 1, Liquid mixture 2
Fixed: Pressure, kPa = 101.33
Property: Liquid-liquid equilibrium temperature, K (Liquid mixture 1); method: UV-VIS spectrophotometer
Mole fraction of 1-(cyanomethyl)-3-methylimidazolium 4,5-dicyano-2-(trifluoromethyl)imidazolide	Liquid-liquid equilibrium temperature, K	uncertainty
1	366.1	.2
.9346	366.1	.2
.8529	365	.2
.7368	362.5	.2
.6654	360.5	.2
.6084	358.2	.2
.5624	355.7	.2
.5163	352.9	.2
.4688	348.1	.2
.4027	339.1	.2
.3488	332.8	.2
.2992	326.8	.2
.2483	317.3	.2
.1979	309.7	.2
.106	274.7	.2

System: 1-(cyanomethyl)-3-methylimidazolium 4,5-dicyano-2-(trifluoromethyl)imidazolide + water; phases: Liquid, Crystal
Fixed: Pressure, kPa = 101.33
Property: Solid-liquid equilibrium temperature, K (Liquid); method: Visual observation
Mole fraction of 1-(cyanomethyl)-3-methylimidazolium 4,5-dicyano-2-(trifluoromethyl)imidazolide	Solid-liquid equilibrium temperature, K	uncertainty
.0704	273.1	.2
.0098	273.2	.2
0	273.2	.2

System: water + 1-butyl-3-methylimidazolium 4,5-dicyano-2-(trifluoromethyl)imidazolide; phases: Liquid mixture 1, Liquid mixture 2
Fixed: Pressure, kPa = 101.33
Property: Liquid-liquid equilibrium temperature, K (Liquid mixture 1); method: UV-VIS spectrophotometry
Mole fraction of 1-butyl-3-methylimidazolium 4,5-dicyano-2-(trifluoromethyl)imidazolide	Liquid-liquid equilibrium temperature, K	uncertainty
.2742	296.1	.2
.2527	326.4	.2
.2293	338.9	.2
.1919	360.8	.2
.0027	345.7	.2
.0019	323.4	.2
.0014	309.5	.2

System: water + 1-butyl-3-methylimidazolium 4,5-dicyano-2-(trifluoromethyl)imidazolide; phases: Liquid, Crystal
Fixed: Pressure, kPa = 101.33
Property: Solid-liquid equilibrium temperature, K (Liquid); method: Visual observation
Mole fraction of 1-butyl-3-methylimidazolium 4,5-dicyano-2-(trifluoromethyl)imidazolide	Solid-liquid equilibrium temperature, K	uncertainty
.4078	261.4	.2
.348	267.8	.2
.295	272.1	.2
