Measured thermophysical data. Experimental study of the density and derived partial molar volumes of complex ternary water+1-propanol+Li2SO4 mixtures at temperatures from (303 to 448) K and pressures up to 40 MPa
Source: Fluid Phase Equilib., 2014, 10.1016/j.fluid.2014.09.027
Compound 1: 1-propanol, C3H8O, purity 99.5%
Compound 2: lithium sulfate, Li2O4S, purity 99%
Compound 3: water, H2O, purity 99.9%

System: 1-propanol + water + lithium sulfate; phases: Liquid
Property: Mass density, kg/m3 (Liquid); method: Constant-volume piezometry
Mole fraction of lithium sulfate	Mole fraction of 1-propanol	Pressure, kPa	Temperature, K	Mass density, kg/m3	uncertainty
.00623	.01553	40000	303.15	1035	.00005
.00623	.01553	30000	303.15	1031.2	.00005
.00623	.01553	20000	303.15	1027.3	.00005
.00623	.01553	10000	303.15	1023.4	.00005
.00623	.01553	5000	303.15	1021.4	.00005
.00623	.01553	40000	323.15	1026.3	.00005
.00623	.01553	30000	323.15	1022.4	.00005
.00623	.01553	20000	323.15	1018.6	.00005
.00623	.01553	10000	323.15	1014.7	.00005
.00623	.01553	5000	323.15	1012.8	.00005
.00623	.01553	40000	348.15	1013.3	.00005
.00623	.01553	30000	348.15	1009.3	.00005
.00623	.01553	20000	348.15	1005.4	.00005
.00623	.01553	10000	348.15	1001.5	.00005
.00623	.01553	5000	348.15	999.5	.00005
.00623	.01553	40000	373.15	998	.00005
.00623	.01553	30000	373.15	993.8	.00005
.00623	.01553	20000	373.15	989.7	.00005
.00623	.01553	10000	373.15	985.5	.00005
.00623	.01553	5000	373.15	983.4	.00005
.00623	.01553	40000	398.15	980.5	.00005
.00623	.01553	30000	398.15	976	.00005
.00623	.01553	20000	398.15	971.4	.00005
.00623	.01553	10000	398.15	966.9	.00005
.00623	.01553	5000	398.15	964.6	.00005
.00623	.01553	40000	423.15	960.7	.00005
.00623	.01553	30000	423.15	955.7	.00005
.00623	.01553	20000	423.15	950.6	.00005
.00623	.01553	10000	423.15	945.5	.00005
.00623	.01553	5000	423.15	942.9	.00005
.00623	.01553	40000	448.15	938.7	.00005
.00623	.01553	30000	448.15	932.9	.00005
.00623	.01553	20000	448.15	927.2	.00005
.00623	.01553	10000	448.15	921.4	.00005
.00623	.01553	5000	448.15	918.5	.00005
.01238	.01553	40000	303.15	1062.6	.00005
.01238	.01553	30000	303.15	1059	.00005
.01238	.01553	20000	303.15	1055.4	.00005
.01238	.01553	10000	303.15	1051.8	.00005
.01238	.01553	5000	303.15	1050	.00005
.01238	.01553	40000	323.15	1053.7	.00005
.01238	.01553	30000	323.15	1050.1	.00005
.01238	.01553	20000	323.15	1046.5	.00005
.01238	.01553	10000	323.15	1043	.00005
.01238	.01553	5000	323.15	1041.2	.00005
.01238	.01553	40000	348.15	1040.8	.00005
.01238	.01553	30000	348.15	1037.1	.00005
.01238	.01553	20000	348.15	1033.4	.00005
.01238	.01553	10000	348.15	1029.7	.00005
.01238	.01553	5000	348.15	1027.9	.00005
.01238	.01553	40000	373.15	1025.9	.00005
.01238	.01553	30000	373.15	1021.9	.00005
.01238	.01553	20000	373.15	1018	.00005
.01238	.01553	10000	373.15	1014.1	.00005
.01238	.01553	5000	373.15	1012.1	.00005
.01238	.01553	40000	398.15	1008.9	.00005
.01238	.01553	30000	398.15	1004.5	.00005
.01238	.01553	20000	398.15	1000.2	.00005
.01238	.01553	10000	398.15	995.9	.00005
.01238	.01553	5000	398.15	993.7	.00005
.01238	.01553	40000	423.15	989.8	.00005
.01238	.01553	30000	423.15	985	.00005
.01238	.01553	20000	423.15	980.1	.00005
.01238	.01553	10000	423.15	975.2	.00005
.01238	.01553	5000	423.15	972.8	.00005
.01238	.01553	40000	448.15	968.7	.00005
.01238	.01553	30000	448.15	963.2	.00005
.01238	.01553	20000	448.15	957.7	.00005
.01238	.01553	10000	448.15	952.1	.00005
.01238	.01553	5000	448.15	949.4	.00005
.01995	.01553	40000	303.15	1099	.00005
.01995	.01553	30000	303.15	1095.2	.00005
.01995	.01553	20000	303.15	1091.4	.00005
.01995	.01553	10000	303.15	1087.6	.00005
.01995	.01553	5000	303.15	1085.7	.00005
.01995	.01553	40000	323.15	1089.7	.00005
.01995	.01553	30000	323.15	1086.1	.00005
.01995	.01553	20000	323.15	1082.5	.00005
.01995	.01553	10000	323.15	1079	.00005
.01995	.01553	5000	323.15	1077.2	.00005
.01995	.01553	40000	348.15	1076.4	.00005
.01995	.01553	30000	348.15	1072.9	.00005
.01995	.01553	20000	348.15	1069.5	.00005
.01995	.01553	10000	348.15	1066	.00005
.01995	.01553	5000	348.15	1064.2	.00005
.01995	.01553	40000	373.15	1061.5	.00005
.01995	.01553	30000	373.15	1057.8	.00005
.01995	.01553	20000	373.15	1054.1	.00005
.01995	.01553	10000	373.15	1050.4	.00005
.01995	.01553	5000	373.15	1048.6	.00005
.01995	.01553	40000	398.15	1044.8	.00005
.01995	.01553	30000	398.15	1040.6	.00005
.01995	.01553	20000	398.15	1036.5	.00005
.01995	.01553	10000	398.15	1032.4	.00005
.01995	.01553	5000	398.15	1030.4	.00005
.01995	.01553	40000	423.15	1026.3	.00005
.01995	.01553	30000	423.15	1021.5	.00005
.01995	.01553	20000	423.15	1016.7	.00005
.01995	.01553	10000	423.15	1011.9	.00005
.01995	.01553	5000	423.15	1009.5	.00005
.01995	.01553	40000	448.15	1006.1	.00005
.01995	.01553	30000	448.15	1000.4	.00005
.01995	.01553	20000	448.15	994.6	.00005
.01995	.01553	10000	448.15	988.9	.00005
.01995	.01553	5000	448.15	986	.00005
.00623	.02541	40000	303.15	1030.6	.00005
.00623	.02541	30000	303.15	1026.8	.00005
.00623	.02541	20000	303.15	1023	.00005
.00623	.02541	10000	303.15	1019.2	.00005
.00623	.02541	5000	303.15	1017.3	.00005
.00623	.02541	40000	323.15	1021.5	.00005
.00623	.02541	30000	323.15	1017.7	.00005
.00623	.02541	20000	323.15	1013.9	.00005
.00623	.02541	10000	323.15	1010.1	.00005
.00623	.02541	5000	323.15	1008.2	.00005
.00623	.02541	40000	348.15	1008.1	.00005
.00623	.02541	30000	348.15	1004.1	.00005
.00623	.02541	20000	348.15	1000.2	.00005
.00623	.02541	10000	348.15	996.2	.00005
.00623	.02541	5000	348.15	994.2	.00005
.00623	.02541	40000	373.15	992.5	.00005
.00623	.02541	30000	373.15	988.2	.00005
.00623	.02541	20000	373.15	984	.00005
.00623	.02541	10000	373.15	979.7	.00005
.00623	.02541	5000	373.15	977.6	.00005
.00623	.02541	40000	398.15	974.7	.00005
.00623	.02541	30000	398.15	970	.00005
.00623	.02541	20000	398.15	965.3	.00005
.00623	.02541	10000	398.15	960.5	.00005
.00623	.02541	5000	398.15	958.2	.00005
.00623	.02541	40000	423.15	954.7	.00005
.00623	.02541	30000	423.15	949.4	.00005
.00623	.02541	20000	423.15	944	.00005
.00623	.02541	10000	423.15	938.7	.00005
.00623	.02541	5000	423.15	936.1	.00005
.00623	.02541	40000	448.15	932.4	.00005
.00623	.02541	30000	448.15	926.4	.00005
.00623	.02541	20000	448.15	920.3	.00005
.00623	.02541	10000	448.15	914.3	.00005
.00623	.02541	5000	448.15	911.2	.00005
.00623	.03224	40000	303.15	1027.9	.00005
.00623	.03224	30000	303.15	1024.2	.00005
.00623	.03224	20000	303.15	1020.5	.00005
.00623	.03224	10000	303.15	1016.8	.00005
.00623	.03224	5000	303.15	1014.9	.00005
.00623	.03224	40000	323.15	1018.4	.00005
.00623	.03224	30000	323.15	1014.7	.00005
.00623	.03224	20000	323.15	1010.9	.00005
.00623	.03224	10000	323.15	1007.1	.00005
.00623	.03224	5000	323.15	1005.2	.00005
.00623	.03224	40000	348.15	1004.6	.00005
.00623	.03224	30000	348.15	1000.6	.00005
.00623	.03224	20000	348.15	996.6	.00005
.00623	.03224	10000	348.15	992.7	.00005
.00623	.03224	5000	348.15	990.7	.00005
.00623	.03224	40000	373.15	988.6	.00005
.00623	.03224	30000	373.15	984.3	.00005
.00623	.03224	20000	373.15	980	.00005
.00623	.03224	10000	373.15	975.7	.00005
.00623	.03224	5000	373.15	973.5	.00005
.00623	.03224	40000	398.15	970.4	.00005
.00623	.03224	30000	398.15	965.6	.00005
.00623	.03224	20000	398.15	960.9	.00005
.00623	.03224	10000	398.15	956.2	.00005
.00623	.03224	5000	398.15	953.8	.00005
.00623	.03224	40000	423.15	950	.00005
.00623	.03224	30000	423.15	944.7	.00005
.00623	.03224	20000	423.15	939.4	.00005
.00623	.03224	10000	423.15	934.1	.00005
.00623	.03224	5000	423.15	931.4	.00005
.00623	.03224	40000	448.15	927.4	.00005
.00623	.03224	30000	448.15	921.4	.00005
.00623	.03224	20000	448.15	915.4	.00005
.00623	.03224	10000	448.15	909.4	.00005
.00623	.03224	5000	448.15	906.5	.00005
.00623	.05024	40000	303.15	1019.4	.00005
.00623	.05024	30000	303.15	1015.8	.00005
.00623	.05024	20000	303.15	1012.2	.00005
.00623	.05024	10000	303.15	1008.4	.00005
.00623	.05024	5000	303.15	1006.5	.00005
.00623	.05024	40000	323.15	1008.9	.00005
.00623	.05024	30000	323.15	1005.4	.00005
.00623	.05024	20000	323.15	1001.6	.00005
.00623	.05024	10000	323.15	997.7	.00005
.00623	.05024	5000	323.15	995.7	.00005
.00623	.05024	40000	348.15	994	.00005
.00623	.05024	30000	348.15	990.3	.00005
.00623	.05024	20000	348.15	986.4	.00005
.00623	.05024	10000	348.15	982.2	.00005
.00623	.05024	5000	348.15	980	.00005
.00623	.05024	40000	373.15	977	.00005
.00623	.05024	30000	373.15	973.1	.00005
.00623	.05024	20000	373.15	968.8	.00005
.00623	.05024	10000	373.15	964.2	.00005
.00623	.05024	5000	373.15	961.7	.00005
.00623	.05024	40000	398.15	958	.00005
.00623	.05024	30000	398.15	953.7	.00005
.00623	.05024	20000	398.15	948.9	.00005
.00623	.05024	10000	398.15	943.7	.00005
.00623	.05024	5000	398.15	941	.00005
.00623	.05024	40000	423.15	936.9	.00005
.00623	.05024	30000	423.15	932.1	.00005
.00623	.05024	20000	423.15	926.7	.00005
.00623	.05024	10000	423.15	920.8	.00005
.00623	.05024	5000	423.15	917.7	.00005
.00623	.05024	40000	448.15	913.8	.00005
.00623	.05024	30000	448.15	908.3	.00005
.00623	.05024	20000	448.15	902.2	.00005
.00623	.05024	10000	448.15	895.5	.00005
.00623	.05024	5000	448.15	891.9	.00005
.001238	.05024	40000	303.15	1049.4	.00005
.001238	.05024	30000	303.15	1045.9	.00005
.001238	.05024	20000	303.15	1042.4	.00005
.001238	.05024	10000	303.15	1038.7	.00005
.001238	.05024	5000	303.15	1036.8	.00005
.001238	.05024	40000	323.15	1039.3	.00005
.001238	.05024	30000	323.15	1035.7	.00005
.001238	.05024	20000	323.15	1032	.00005
.001238	.05024	10000	323.15	1028.3	.00005
.001238	.05024	5000	323.15	1026.4	.00005
.001238	.05024	40000	348.15	1024.9	.00005
.001238	.05024	30000	348.15	1021.1	.00005
.001238	.05024	20000	348.15	1017.2	.00005
.001238	.05024	10000	348.15	1013.3	.00005
.001238	.05024	5000	348.15	1011.3	.00005
.001238	.05024	40000	373.15	1008.4	.00005
.001238	.05024	30000	373.15	1004.5	.00005
.001238	.05024	20000	373.15	1000.3	.00005
.001238	.05024	10000	373.15	995.9	.00005
.001238	.05024	5000	373.15	993.7	.00005
.001238	.05024	40000	398.15	990	.00005
.001238	.05024	30000	398.15	985.8	.00005
.001238	.05024	20000	398.15	981.2	.00005
.001238	.05024	10000	398.15	976.2	.00005
.001238	.05024	5000	398.15	973.6	.00005
.001238	.05024	40000	423.15	969.6	.00005
.001238	.05024	30000	423.15	965.1	.00005
.001238	.05024	20000	423.15	960	.00005
.001238	.05024	10000	423.15	954.2	.00005
.001238	.05024	5000	423.15	951.1	.00005
.001238	.05024	40000	448.15	947.1	.00005
.001238	.05024	30000	448.15	942.5	.00005
.001238	.05024	20000	448.15	936.7	.00005
.001238	.05024	10000	448.15	929.9	.00005
.001238	.05024	5000	448.15	926.1	.00005
.01995	.05024	40000	303.15	1082.7	.00005
.01995	.05024	30000	303.15	1079.6	.00005
.01995	.05024	20000	303.15	1076.3	.00005
.01995	.05024	10000	303.15	1072.9	.00005
.01995	.05024	5000	303.15	1071.2	.00005
.01995	.05024	40000	323.15	1073.3	.00005
.01995	.05024	30000	323.15	1070.2	.00005
.01995	.05024	20000	323.15	1066.9	.00005
.01995	.05024	10000	323.15	1063.4	.00005
.01995	.05024	5000	323.15	1061.6	.00005
.01995	.05024	40000	348.15	1059.9	.00005
.01995	.05024	30000	348.15	1056.7	.00005
.01995	.05024	20000	348.15	1053.3	.00005
.01995	.05024	10000	348.15	1049.6	.00005
.01995	.05024	5000	348.15	1047.6	.00005
.01995	.05024	40000	373.15	1044.6	.00005
.01995	.05024	30000	373.15	1041.2	.00005
.01995	.05024	20000	373.15	1037.5	.00005
.01995	.05024	10000	373.15	1033.5	.00005
.01995	.05024	5000	373.15	1031.4	.00005
.01995	.05024	40000	398.15	1027.5	.00005
.01995	.05024	30000	398.15	1023.7	.00005
.01995	.05024	20000	398.15	1019.7	.00005
.01995	.05024	10000	398.15	1015.2	.00005
.01995	.05024	5000	398.15	1012.9	.00005
.01995	.05024	40000	423.15	1008.5	.00005
.01995	.05024	30000	423.15	1004.3	.00005
.01995	.05024	20000	423.15	999.7	.00005
.01995	.05024	10000	423.15	994.7	.00005
.01995	.05024	5000	423.15	992.1	.00005
.01995	.05024	40000	448.15	987.7	.00005
.01995	.05024	30000	448.15	982.9	.00005
.01995	.05024	20000	448.15	977.6	.00005
.01995	.05024	10000	448.15	972	.00005
.01995	.05024	5000	448.15	969	.00005
.0274	.05024	40000	303.15	1103.5	.00005
.0274	.05024	30000	303.15	1100.6	.00005
.0274	.05024	20000	303.15	1097.5	.00005
.0274	.05024	10000	303.15	1094.3	.00005
.0274	.05024	5000	303.15	1092.7	.00005
.0274	.05024	40000	323.15	1094.6	.00005
.0274	.05024	30000	323.15	1091.9	.00005
.0274	.05024	20000	323.15	1088.9	.00005
.0274	.05024	10000	323.15	1085.7	.00005
.0274	.05024	5000	323.15	1084	.00005
.0274	.05024	40000	348.15	1082	.00005
.0274	.05024	30000	348.15	1079.3	.00005
.0274	.05024	20000	348.15	1076.3	.00005
.0274	.05024	10000	348.15	1073	.00005
.0274	.05024	5000	348.15	1071.2	.00005
.0274	.05024	40000	373.15	1067.6	.00005
.0274	.05024	30000	373.15	1064.8	.00005
.0274	.05024	20000	373.15	1061.6	.00005
.0274	.05024	10000	373.15	1058.1	.00005
.0274	.05024	5000	373.15	1056.1	.00005
.0274	.05024	40000	398.15	1051.5	.00005
.0274	.05024	30000	398.15	1048.4	.00005
.0274	.05024	20000	398.15	1044.9	.00005
.0274	.05024	10000	398.15	1040.9	.00005
.0274	.05024	5000	398.15	1038.8	.00005
.0274	.05024	40000	423.15	1033.7	.00005
.0274	.05024	30000	423.15	1030	.00005
.0274	.05024	20000	423.15	1026	.00005
.0274	.05024	10000	423.15	1021.5	.00005
.0274	.05024	5000	423.15	1019.2	.00005
.0274	.05024	40000	448.15	1014.2	.00005
.0274	.05024	30000	448.15	1009.7	.00005
.0274	.05024	20000	448.15	1005	.00005
.0274	.05024	10000	448.15	1000	.00005
.0274	.05024	5000	448.15	997.4	.00005
