Measured thermophysical data. Effect of mono-, di- and tri-ethanolammonium tetrafluoroborate protonic ionic liquids on the volatility of water, ethanol, and methanol
Source: Fluid Phase Equilib., 2011, 10.1016/j.fluid.2011.01.009
Compound 1: 2-hydroxyethanaminium tetrafluoroborate, C2H8BF4NO, purity 98%
Compound 2: diethanolammonium tetrafluoroborate, C4H12BF4NO2, purity 98%
Compound 3: triethanolammonium tetrafluoroborate, C6H16BF4NO3, purity 98%
Compound 4: water, H2O, purity 99.8%
Compound 5: ethanol, C2H6O
Compound 6: methanol, CH4O

System: 2-hydroxyethanaminium tetrafluoroborate + water; phases: Liquid, Gas
Property: Vapor or sublimation pressure, kPa (Liquid); method: Closed cell (Static) method
Mole fraction of water	Temperature, K	Vapor or sublimation pressure, kPa	uncertainty
.9867	336.77	22.506	.14
.9867	342.73	29.258	.14
.9867	349.25	38.514	.14
.9867	355.1	48.82	.14
.9867	362.04	64.032	.14
.9867	366.39	75.412	.14
.9867	369.64	84.917	.14
.9507	338.37	22.521	.14
.9507	344.36	29.191	.14
.9507	350.17	37.134	.14
.9507	355.84	46.7	.14
.9507	360.27	55.553	.14
.9507	365.4	67.461	.14
.9507	370.57	81.494	.14
.8921	341.28	22.546	.14
.8921	346.57	28.179	.14
.8921	352.19	35.421	.14
.8921	358.09	44.657	.14
.8921	363.59	55.044	.14
.8921	369.15	67.625	.14
.8921	374.36	81.483	.14

System: methanol + 2-hydroxyethanaminium tetrafluoroborate; phases: Liquid, Gas
Property: Vapor or sublimation pressure, kPa (Liquid); method: Closed cell (Static) method
Mole fraction of methanol	Temperature, K	Vapor or sublimation pressure, kPa	uncertainty
.9767	304.86	22.628	.14
.9767	309.85	28.828	.14
.9767	315.14	36.928	.14
.9767	320.42	46.798	.14
.9767	324.66	56.269	.14
.9767	328.94	67.385	.14
.9767	333.13	79.973	.14
.9157	304.06	20.223	.14
.9157	311.44	28.9	.14
.9157	316.41	36.346	.14
.9157	320.75	44.068	.14
.9157	326.13	55.528	.14
.9157	330.81	67.42	.14
.9157	335.93	82.98	.14
.8231	306.82	20.845	.14
.8231	312.48	27.228	.14
.8231	318.35	35.531	.14
.8231	323.7	44.944	.14
.8231	329.47	57.182	.14
.8231	333.98	68.396	.14
.8231	338.28	80.931	.14

System: ethanol + 2-hydroxyethanaminium tetrafluoroborate; phases: Liquid, Gas
Property: Vapor or sublimation pressure, kPa (Liquid); method: Closed cell (Static) method
Mole fraction of ethanol	Temperature, K	Vapor or sublimation pressure, kPa	uncertainty
.9668	319.81	23.753	.14
.9668	324.75	30.186	.14
.9668	329.61	37.872	.14
.9668	333.97	46.127	.14
.9668	338.4	56.05	.14
.9668	342.76	67.468	.14
.9668	347.55	82.075	.14
.8831	320.99	23.572	.14
.8831	326.24	30.3	.14
.8831	331.17	37.946	.14
.8831	335.49	45.99	.14
.8831	339.85	55.515	.14
.8831	345.03	68.985	.14
.8831	350.16	84.662	.14
.764	322.15	23.068	.14
.764	326.63	28.459	.14
.764	332.62	37.319	.14
.764	337.35	45.776	.14
.764	342.57	57.006	.14
.764	347.62	69.834	.14
.764	352.32	83.853	.14

System: water + diethanolammonium tetrafluoroborate; phases: Liquid, Gas
Property: Vapor or sublimation pressure, kPa (Liquid); method: Closed cell (Static) method
Mole fraction of water	Temperature, K	Vapor or sublimation pressure, kPa	uncertainty
.9897	336.28	22.237	.14
.9897	340.84	27.243	.14
.9897	347	35.478	.14
.9897	352.13	43.858	.14
.9897	357.86	55.148	.14
.9897	363.01	67.233	.14
.9897	368.25	81.703	.14
.9616	337.12	21.881	.14
.9616	343.27	28.627	.14
.9616	348.99	36.413	.14
.9616	354.57	45.62	.14
.9616	359.95	56.361	.14
.9616	365.13	68.596	.14
.9616	369.33	80.259	.14
.9147	338.72	21.186	.14
.9147	344.93	27.705	.14
.9147	350.74	35.321	.14
.9147	356.28	44.092	.14
.9147	362.03	55.052	.14
.9147	367.67	68.002	.14
.9147	372.49	80.882	.14

System: methanol + diethanolammonium tetrafluoroborate; phases: Liquid, Gas
Property: Vapor or sublimation pressure, kPa (Liquid); method: Closed cell (Static) method
Mole fraction of methanol	Temperature, K	Vapor or sublimation pressure, kPa	uncertainty
.9819	304.51	22.547	.14
.9819	308.53	27.414	.14
.9819	313.78	35.119	.14
.9819	319.29	45.097	.14
.9819	323.74	54.797	.14
.9819	328.31	66.548	.14
.9819	333.05	80.855	.14
.9336	303.26	20.08	.14
.9336	309.03	26.706	.14
.9336	313.5	32.928	.14
.9336	318.92	42.084	.14
.9336	323.72	51.846	.14
.9336	328.6	63.816	.14
.9336	334.02	79.579	.14
.8577	305.4	20.542	.14
.8577	310.42	26.212	.14
.8577	316.18	34.194	.14
.8577	320.97	42.45	.14
.8577	326.19	53.039	.14
.8577	331.69	66.353	.14
.8577	336.49	80.219	.14

System: ethanol + diethanolammonium tetrafluoroborate; phases: Liquid, Gas
Property: Vapor or sublimation pressure, kPa (Liquid); method: Closed cell (Static) method
Mole fraction of ethanol	Temperature, K	Vapor or sublimation pressure, kPa	uncertainty
.9742	318.98	23.167	.14
.9742	324.06	29.694	.14
.9742	329.18	37.723	.14
.9742	333.45	45.731	.14
.9742	337.59	54.916	.14
.9742	342.06	66.485	.14
.9742	346.2	78.957	.14
.9073	319.55	22.776	.14
.9073	324.26	28.612	.14
.9073	329.25	36.126	.14
.9073	333.3	43.303	.14
.9073	337.88	52.946	.14
.9073	343.15	66.149	.14
.9073	347.31	78.488	.14
.8075	320.05	22.011	.14
.8075	324.75	27.553	.14
.8075	329.62	34.446	.14
.8075	334.95	43.662	.14
.8075	339.85	53.815	.14
.8075	344.89	66.431	.14
.8075	349.63	80.183	.14

System: triethanolammonium tetrafluoroborate + water; phases: Liquid, Gas
Property: Vapor or sublimation pressure, kPa (Liquid); method: Closed cell (Static) method
Mole fraction of water	Temperature, K	Vapor or sublimation pressure, kPa	uncertainty
.9916	339.29	25.756	.14
.9916	342.89	30.097	.14
.9916	348.19	37.678	.14
.9916	353.2	46.305	.14
.9916	358.39	56.892	.14
.9916	362.99	67.965	.14
.9916	367.75	80.998	.14
.9685	338.81	24.194	.14
.9685	343.92	30.198	.14
.9685	349.54	38.184	.14
.9685	354.71	47.069	.14
.9685	359.55	56.994	.14
.9685	363.88	67.35	.14
.9685	368.41	79.629	.14
.9294	339.51	23.096	.14
.9294	346.54	31.212	.14
.9294	351.43	38.158	.14
.9294	356.52	46.789	.14
.9294	361.65	56.984	.14
.9294	365.71	66.423	.14
.9294	370.74	79.895	.14

System: methanol + triethanolammonium tetrafluoroborate; phases: Liquid, Gas
Property: Vapor or sublimation pressure, kPa (Liquid); method: Closed cell (Static) method
Mole fraction of methanol	Temperature, K	Vapor or sublimation pressure, kPa	uncertainty
.9852	306.57	25.203	.14
.9852	310.75	30.81	.14
.9852	315.6	38.661	.14
.9852	319.75	46.509	.14
.9852	324.02	56.166	.14
.9852	328.47	67.721	.14
.9852	332.08	78.784	.14
.9453	304.3	21.842	.14
.9453	309.33	27.98	.14
.9453	314.23	35.177	.14
.9453	318.87	43.269	.14
.9453	323.3	52.927	.14
.9453	327.96	64.027	.14
.9453	331.91	75.469	.14
.881	306.57	23.104	.14
.881	310.85	28.425	.14
.881	315.51	35.233	.14
.881	320.47	43.972	.14
.881	324.58	52.422	.14
.881	328.35	61.299	.14
.881	333.05	74.201	.14

System: ethanol + triethanolammonium tetrafluoroborate; phases: Liquid, Gas
Property: Vapor or sublimation pressure, kPa (Liquid); method: Closed cell (Static) method
Mole fraction of ethanol	Temperature, K	Vapor or sublimation pressure, kPa	uncertainty
.9789	320.29	24.965	.14
.9789	324.22	30.178	.14
.9789	329.25	38.189	.14
.9789	333.68	46.672	.14
.9789	337.72	55.773	.14
.9789	342.08	67.185	.14
.9789	345.72	77.977	.14
.9232	320.92	25.131	.14
.9232	325.37	31.074	.14
.9232	329.77	38.104	.14
.9232	334.17	46.382	.14
.9232	338.28	55.45	.14
.9232	342.57	66.672	.14
.9232	346.95	80.355	.14
.8375	319.62	22.823	.14
.8375	324.61	29.029	.14
.8375	329.09	35.742	.14
.8375	333.74	44.074	.14
.8375	338.23	53.524	.14
.8375	342.9	65.12	.14
.8375	346.52	75.603	.14
