Measured thermophysical data. Surface tension of diethyl carbonate, 1,2-dimethoxyethane and diethyl adipate
Source: Fluid Phase Equilib., 2010, 10.1016/j.fluid.2010.03.040
Compound 1: diethyl carbonate, C5H10O3, purity 99.7%
Compound 2: 1,2-dimethoxyethane, C4H10O2, purity 99.9%
Compound 3: diethyl 1,6-hexanedioate, C10H18O4, purity 99%

System: diethyl carbonate; phases: Liquid, Air at 1 atmosphere
Property: Surface tension liquid-gas, N/m (Liquid); method: Capillary rise
Temperature, K	Surface tension liquid-gas, N/m	uncertainty
273.181	.029153	.0002
278.182	.028632	.0002
283.181	.028074	.0002
288.175	.027479	.0002
293.16	.02681	.0002
298.1	.026263	.0002
303.17	.025639	.0002
308.111	.025139	.0002
313.192	.024485	.0002
318.16	.024031	.0002
323.163	.023466	.0002
328.125	.022983	.0002
333.175	.022353	.0002
338.174	.021806	.0002
343.17	.021228	.0002
348.172	.020693	.0002
353.19	.020164	.0002
358.184	.019642	.0002
363.16	.019127	.0002
368.18	.01869	.0002
373.167	.01801	.0002

System: 1,2-dimethoxyethane; phases: Liquid, Air at 1 atmosphere
Property: Surface tension liquid-gas, N/m (Liquid); method: Capillary rise
Temperature, K	Surface tension liquid-gas, N/m	uncertainty
278.168	.02652	.0002
283.165	.02597	.0002
288.178	.02528	.0002
293.17	.02467	.0002
298.027	.02394	.0002
303.154	.02342	.0002
308.119	.02284	.0002
313.156	.02225	.0002
318.17	.02156	.0002
323.184	.02102	.0002
328.171	.02041	.0002
333.169	.01983	.0002
338.173	.01929	.0002
343.167	.01874	.0002
348.165	.01812	.0002
353.181	.01759	.0002
358.165	.01691	.0002
363.165	.01635	.0002
368.17	.01574	.0002
373.17	.01523	.0002

System: diethyl 1,6-hexanedioate; phases: Liquid, Air at 1 atmosphere
Property: Surface tension liquid-gas, N/m (Liquid); method: Capillary rise
Temperature, K	Surface tension liquid-gas, N/m	uncertainty
293.16	.0327	.0002
298.09	.0322	.0002
303.17	.0316	.0002
308.11	.031	.0002
313.18	.0303	.0002
318.15	.0297	.0002
323.17	.0292	.0002
328.12	.0287	.0002
333.16	.0283	.0002
338.16	.0277	.0002
343.15	.0272	.0002
348.13	.0266	.0002
353.16	.0262	.0002
358.13	.0258	.0002
363.13	.0253	.0002
368.15	.0248	.0002
373.14	.0243	.0002
