Measured thermophysical data. Measurement and correlation of solid-liquid equilibrium for abietic acid + alcohol systems at atmospheric pressure
Source: Fluid Phase Equilib., 2014, 10.1016/j.fluid.2014.01.018
Compound 1: abietic acid, C20H30O2, purity 99.11%
Compound 2: isopropanol, C3H8O, purity 99.7%
Compound 3: isobutanol, C4H10O, purity 99.5%
Compound 4: 1-pentanol, C5H12O, purity 98%
Compound 5: isopentanol, C5H12O, purity 98.5%
Compound 6: benzoic acid, C7H6O2, purity 99.9%

System: abietic acid; phases: Crystal, Liquid, Air at 1 atmosphere
Property: Normal melting temperature, K (Crystal); method: DSC/DTA
Normal melting temperature, K	uncertainty
450.89	.1

System: abietic acid; phases: Crystal, Liquid, Air at 1 atmosphere
Property: Molar enthalpy of transition or fusion, kJ/mol (Crystal); method: DSC/DTA
Molar enthalpy of transition or fusion, kJ/mol	uncertainty
19.45389	.1945389

System: isopropanol + abietic acid; phases: Liquid, Crystal
Fixed: Pressure, kPa = 101
Property: Solid-liquid equilibrium temperature, K (Liquid); method: Visual observation
Mole fraction of abietic acid	Solid-liquid equilibrium temperature, K	uncertainty
.03238	291.4	.026
.03621	295.79	.01
.04005	298.6	.02
.04365	301.27	.01
.0476	304.9	.017
.05129	307.53	.01
.0554	310.47	.026
.0609	313.4	.01
.06751	316.4	.01
.07167	318.73	.017
.07597	321.46	.035
.07975	323.25	.006
.08347	324.43	.01
.08769	326.07	.01

System: isobutanol + abietic acid; phases: Liquid, Crystal
Fixed: Pressure, kPa = 101
Property: Solid-liquid equilibrium temperature, K (Liquid); method: Visual observation
Mole fraction of abietic acid	Solid-liquid equilibrium temperature, K	uncertainty
.03298	291.43	.017
.03689	294.55	.017
.03989	296.97	.017
.04214	299.95	0
.04537	301.77	.035
.0482	304.43	.026
.05198	307.1	.02
.05514	308.8	.017
.05929	311.43	.01
.06317	314.05	.017
.06687	316.5	.017
.07128	318.77	.021
.07648	321.37	.026
.08175	323.4	.01

System: 1-pentanol + abietic acid; phases: Liquid, Crystal
Fixed: Pressure, kPa = 101
Property: Solid-liquid equilibrium temperature, K (Liquid); method: Visual observation
Mole fraction of abietic acid	Solid-liquid equilibrium temperature, K	uncertainty
.06076	288.57	.026
.06377	292.07	.01
.06815	295.73	.035
.07244	299.05	.01
.07688	302.45	.017
.08184	306.05	.01
.08685	308.82	.017
.0921	311.43	.02
.09787	314.27	.01
.1042	317.67	.01
.1106	320.43	.01
.1162	322.85	.021
.1229	326.01	.017
.1293	328.43	.01

System: isopentanol + abietic acid; phases: Liquid, Crystal
Fixed: Pressure, kPa = 101
Property: Solid-liquid equilibrium temperature, K (Liquid); method: Visual observation
Mole fraction of abietic acid	Solid-liquid equilibrium temperature, K	uncertainty
.04946	288.8	.017
.05381	292.37	.01
.05629	294.7	.017
.05893	296.55	.017
.06151	298.6	.01
.06422	300.83	.026
.06982	304.05	.017
.07261	306.3	.02
.0759	308.15	.026
.08185	311.55	.01
.08738	314.35	.017
.09337	317.36	.023
.09962	320.23	.01
.106	322.8	.02
