Measured thermophysical data. A novel dynamic recirculating apparatus for vapour-liquid equilibrium measurements at moderate pressures and temperatures
Source: Fluid Phase Equilib., 2013, 10.1016/j.fluid.2013.07.044
Compound 1: cyclohexane, C6H12, purity 99.9%
Compound 2: n-heptane, C7H16, purity 99.5%
Compound 3: n-octane, C8H18, purity 99%
Compound 4: 2-propanone, C3H6O, purity 99.8%
Compound 5: ethanol, C2H6O, purity 99.9%
Compound 6: 1-propanol, C3H8O, purity 99.5%
Compound 7: 2-butanol, C4H10O, purity 99.5%

System: cyclohexane; phases: Liquid, Glass
Property: Boiling temperature at pressure P, K (Liquid); method: Ebulliometric method (Recirculating still)
Pressure, kPa	Boiling temperature at pressure P, K	uncertainty
24.08	312.78	.08
30.7	318.96	.08
38.72	325.07	.08
46.85	330.32	.08
55.2	335.01	.08
61.52	338.21	.08
69.06	341.67	.08
77.87	345.37	.08
85.44	348.28	.08
91.68	350.53	.08
101.32	353.78	.08

System: n-heptane; phases: Liquid, Glass
Property: Boiling temperature at pressure P, K (Liquid); method: Ebulliometric method (Recirculating still)
Pressure, kPa	Boiling temperature at pressure P, K	uncertainty
10.23	308.91	.08
16.91	320.43	.08
23.5	328.58	.08
35.39	339.42	.08
56.16	352.66	.08
67.57	358.24	.08
74.44	361.37	.08
79.37	363.45	.08
86.51	366.31	.08
100.11	371.21	.08

System: n-octane; phases: Liquid, Glass
Property: Boiling temperature at pressure P, K (Liquid); method: Ebulliometric method (Recirculating still)
Pressure, kPa	Boiling temperature at pressure P, K	uncertainty
22.95	352.83	.08
29.98	360.22	.08
37.87	366.89	.08
44.82	371.89	.08
52.81	376.93	.08
59.85	380.87	.08
66.66	384.36	.08
75.23	388.38	.08
82.72	391.59	.08
89.51	394.32	.08
99.01	397.87	.08

System: ethanol; phases: Liquid, Glass
Property: Boiling temperature at pressure P, K (Liquid); method: Ebulliometric method (Recirculating still)
Pressure, kPa	Boiling temperature at pressure P, K	uncertainty
20.14	315.61	.08
30.24	323.82	.08
40.31	329.92	.08
50.39	334.84	.08
70.33	342.49	.08
80.63	345.77	.08
85.67	347.26	.08
98.45	350.68	.08
100.79	351.28	.08
110.86	353.68	.08
120.93	355.92	.08
131.02	357.99	.08
141.1	359.94	.08
151.1	361.77	.08
160	363.56	.08
170	365.24	.08
180	366.77	.08
190	368.31	.08
200	369.75	.08

System: 1-propanol; phases: Liquid, Glass
Property: Boiling temperature at pressure P, K (Liquid); method: Ebulliometric method (Recirculating still)
Pressure, kPa	Boiling temperature at pressure P, K	uncertainty
69.79	360.86	.08
74.92	362.6	.08
79.6	364.11	.08
84.8	365.7	.08
89.78	367.14	.08
94.77	368.52	.08
99.7	369.82	.08
105.14	371.3	.08
110.1	372.42	.08
120.75	374.88	.08
113.19	373.15	.08
130.1	376.91	.08
171	384.57	.08
199.9	389.14	.08
228.5	393.15	.08
229.9	393.35	.08
260	397.13	.08
290	400.57	.08
310	402.71	.08
330	404.74	.08
350	406.69	.08
380	409.43	.08
400	411.18	.08
420	412.84	.08
450	415.23	.08
480	417.52	.08
500	418.96	.08
520	420.37	.08
530	421.06	.08
550	422.41	.08
561.5	423.16	.08

System: ethanol + cyclohexane; phases: Liquid, Gas
Property: Boiling temperature at pressure P, K (Liquid); method: Ebulliometric method (Recirculating still)
Mole fraction of cyclohexane	Pressure, kPa	Boiling temperature at pressure P, K	uncertainty
0	40	329.71	.08
.013	40	327.21	.08
.117	40	318.5	.08
.174	40	316.88	.08
.241	40	315.97	.08
.508	40	314.8	.08
.56	40	314.68	.08
.705	40	314.7	.08
.743	40	314.82	.08
.788	40	314.81	.08
.896	40	315.51	.08
.946	40	316.3	.08
.972	40	317.58	.08
.98	40	318.71	.08
1	40	325.81	.08
0	69.81	342.3	.08
.015	69.81	340.04	.08
.064	69.81	335.05	.08
.128	69.81	331.87	.08
.186	69.81	330.31	.08
.251	69.81	329.39	.08
.424	69.81	328.66	.08
.504	69.81	328.53	.08
.566	69.81	328.52	.08
.715	69.81	328.6	.08
.792	69.81	328.67	.08
.86	69.81	329.04	.08
.911	69.81	329.7	.08
.939	69.81	330.67	.08
.966	69.81	332.49	.08
.989	69.81	337.7	.08
1	69.81	341.99	.08
0	97.72	350.5	.08
.064	97.72	343.56	.08
.126	97.72	340.46	.08
.187	97.72	338.99	.08
.363	97.72	337.57	.08
.43	97.72	337.37	.08
.569	97.72	337.28	.08
.719	97.72	337.42	.08
.757	97.72	337.43	.08
.774	97.72	337.46	.08
.851	97.72	338.06	.08
.903	97.72	338.78	.08
.959	97.72	342.82	.08
.991	97.72	348.82	.08
1	97.72	352.6	.08
0	150	361.71	.08
.068	150	355.17	.08
.131	150	352.24	.08
.195	150	350.75	.08
.244	150	350.02	.08
.364	150	349.44	.08
.516	150	349.21	.08
.572	150	349.23	.08
.719	150	349.51	.08
.799	150	350.54	.08
.917	150	354.19	.08
1	150	367.66	.08

System: ethanol + cyclohexane; phases: Gas, Liquid
Property: Mole fraction of cyclohexane (Gas); method: Chromatography
Mole fraction of cyclohexane	Pressure, kPa	Mole fraction of cyclohexane	uncertainty
0	40	0	.08
.013	40	.11	.08
.117	40	.465	.08
.174	40	.532	.08
.241	40	.577	.08
.508	40	.624	.08
.56	40	.625	.08
.705	40	.637	.08
.743	40	.642	.08
.788	40	.65	.08
.896	40	.663	.08
.946	40	.694	.08
.972	40	.735	.08
.98	40	.769	.08
1	40	1	.08
0	69.81	0	.08
.015	69.81	.099	.08
.064	69.81	.309	.08
.128	69.81	.412	.08
.186	69.81	.482	.08
.251	69.81	.523	.08
.424	69.81	.573	.08
.504	69.81	.582	.08
.566	69.81	.584	.08
.715	69.81	.6	.08
.792	69.81	.606	.08
.86	69.81	.619	.08
.911	69.81	.638	.08
.939	69.81	.665	.08
.966	69.81	.729	.08
.989	69.81	.879	.08
1	69.81	1	.08
0	97.72	0	.08
.064	97.72	.274	.08
.126	97.72	.387	.08
.187	97.72	.453	.08
.363	97.72	.527	.08
.43	97.72	.546	.08
.569	97.72	.56	.08
.719	97.72	.579	.08
.757	97.72	.58	.08
.774	97.72	.581	.08
.851	97.72	.598	.08
.903	97.72	.619	.08
.959	97.72	.739	.08
.991	97.72	.897	.08
1	97.72	1	.08
0	150	0	.08
.068	150	.242	.08
.131	150	.356	.08
.195	150	.413	.08
.244	150	.455	.08
.364	150	.492	.08
.516	150	.522	.08
.572	150	.529	.08
.719	150	.554	.08
.799	150	.593	.08
.917	150	.675	.08
1	150	1	.08

System: 2-propanone + 2-butanol; phases: Liquid, Gas
Property: Vapor or sublimation pressure, kPa (Liquid); method: Ebulliometric method (Recirculating still)
Mole fraction of 2-butanol	Temperature, K	Vapor or sublimation pressure, kPa	uncertainty
0	373.15	102.9	.09
.037	373.15	114	.09
.069	373.15	123.7	.09
.415	373.15	225.2	.09
.546	373.15	257.7	.09
.618	373.15	272.3	.09
.829	373.15	321	.09
.865	373.15	331.6	.09
.925	373.15	347.2	.09
.942	373.15	352.1	.09
1	373.15	369.4	.09

System: 2-propanone + 2-butanol; phases: Gas, Liquid
Property: Mole fraction of 2-butanol (Gas); method: Chromatography
Mole fraction of 2-butanol	Temperature, K	Mole fraction of 2-butanol	uncertainty
0	373.15	0	.09
.037	373.15	.128	.09
.069	373.15	.219	.09
.415	373.15	.697	.09
.546	373.15	.789	.09
.618	373.15	.819	.09
.829	373.15	.929	.09
.865	373.15	.946	.09
.925	373.15	.972	.09
.942	373.15	.978	.09
1	373.15	1	.09
