Measured thermophysical data. Solubilities of novel ethylene oxide diphosphate-based chelating agents in supercritical carbon dioxide
Source: Fluid Phase Equilib., 2013, 10.1016/j.fluid.2013.06.035
Compound 1: diethylene glycol bis (3,5,5-trimethyl-1-hexyl) dimethyl diphosphate, C24H52O9P2, purity 98%
Compound 2: diethylene glycol dioctyl dimethyl diphosphate, C22H48O9P2, purity 98%
Compound 3: diethylene glycol bis (2,4,4-trimethyl-1-pentyl) dimethyl diphosphate, C22H48O9P2, purity 98%
Compound 4: carbon dioxide, CO2, purity 99.99%

System: diethylene glycol bis (3,5,5-trimethyl-1-hexyl) dimethyl diphosphate + carbon dioxide; phases: Fluid (supercritical or subcritical phases), Crystal
Property: Mole fraction of diethylene glycol bis (3,5,5-trimethyl-1-hexyl) dimethyl diphosphate (Fluid (supercritical or subcritical phases)); method: Phase equilibration
Temperature, K	Pressure, kPa	Mole fraction of diethylene glycol bis (3,5,5-trimethyl-1-hexyl) dimethyl diphosphate	uncertainty
313	9907	.00175	
313	10052	.00194	
313	10078	.00212	
313	10333	.00241	
313	10576	.00292	
323	12123	.00152	
323	12567	.00172	
323	12879	.00208	
323	13024	.00227	
323	13363	.00271	
323	13463	.00288	
323	13577	.00313	
333	14719	.00151	
333	14453	.00156	
333	14554	.00163	
333	14953	.00173	
333	15046	.00189	
333	15525	.00207	
333	15613	.00225	
333	15949	.00271	
333	16257	.0031	
333	16448	.00347	

System: diethylene glycol bis (2,4,4-trimethyl-1-pentyl) dimethyl diphosphate + carbon dioxide; phases: Fluid (supercritical or subcritical phases), Crystal
Property: Mole fraction of diethylene glycol bis (2,4,4-trimethyl-1-pentyl) dimethyl diphosphate (Fluid (supercritical or subcritical phases)); method: Phase equilibration
Temperature, K	Pressure, kPa	Mole fraction of diethylene glycol bis (2,4,4-trimethyl-1-pentyl) dimethyl diphosphate	uncertainty
313	9533	.00237	
313	9571	.00265	
313	9648	.0031	
313	9862	.00338	
313	9861	.00349	
323	11345	.00143	
323	11566	.00182	
323	12159	.00257	
323	12446	.003	
323	12559	.00332	
323	12656	.00349	
333	13546	.00141	
333	13783	.00177	
333	13948	.00197	
333	14467	.00228	
333	14560	.00254	
333	14827	.00281	
333	15443	.00316	
333	15555	.00347	

System: diethylene glycol dioctyl dimethyl diphosphate + carbon dioxide; phases: Fluid (supercritical or subcritical phases), Crystal
Property: Mole fraction of diethylene glycol dioctyl dimethyl diphosphate (Fluid (supercritical or subcritical phases)); method: Phase equilibration
Temperature, K	Pressure, kPa	Mole fraction of diethylene glycol dioctyl dimethyl diphosphate	uncertainty
313	10554	.00163	
313	11057	.00197	
313	11336	.00239	
313	11565	.00261	
313	12056	.0031	
323	13117	.00146	
323	13345	.00163	
323	13544	.00179	
323	13913	.00199	
323	14154	.00231	
323	14301	.00237	
323	14786	.00243	
323	14686	.00261	
323	14920	.00283	
323	15198	.00315	
333	15833	.0017	
333	16523	.00201	
333	16867	.0023	
333	17114	.00254	
333	17354	.00262	
333	17576	.00284	
333	17877	.00314	
