Measured thermophysical data. Liquid-liquid equilibria of ionic liquid N-butylpyridiniumtetrafluoroborate and disodium hydrogen phosphate/sodiumchloride/sodium sulfate/ammonium sulfate aqueous two-phase systems at T = 298.15 K: Experiment and correlation
Source: Fluid Phase Equilib., 2014, 10.1016/j.fluid.2014.06.013
Compound 1: 1-butylpyridinium tetrafluoroborate, C9H14BF4N, purity 99%
Compound 2: disodium hydrogen phosphate, HNa2O4P, purity 99%
Compound 3: sodium chloride, ClNa, purity 99%
Compound 4: sodium sulfate, Na2O4S, purity 99%
Compound 5: ammonium sulfate, H8N2O4S, purity 99%
Compound 6: water, H2O, purity 99.9%

System: disodium hydrogen phosphate + water + 1-butylpyridinium tetrafluoroborate; phases: Liquid mixture 1, Liquid mixture 2
Fixed: Pressure, kPa = 101
Fixed: Temperature, K = 298.15
Property: Mass fraction of disodium hydrogen phosphate (Liquid mixture 1); method: Titration method
Mass fraction of 1-butylpyridinium tetrafluoroborate	Mass fraction of disodium hydrogen phosphate	uncertainty
.2583	.0405	.001
.2613	.0398	.001
.2665	.0391	.001
.2696	.0385	.001
.2722	.0379	.001
.2788	.037	.001
.2829	.0363	.001
.2854	.0358	.001
.2916	.035	.001
.2941	.0346	.001
.2984	.034	.001
.3008	.0336	.001
.304	.0331	.001
.3097	.0324	.001
.3138	.0319	.001
.3171	.0314	.001
.3207	.031	.001
.3239	.0305	.001
.3271	.0301	.001
.3316	.0295	.001
.3362	.029	.001
.3408	.0285	.001
.3493	.0276	.001
.3549	.0269	.001
.3626	.0261	.001
.3675	.0254	.001
.3756	.0246	.001
.3823	.0239	.001
.3885	.0232	.001
.3955	.0225	.001
.4027	.0217	.001
.4086	.0211	.001
.4142	.0205	.001
.4197	.0201	.001
.4258	.0194	.001
.4302	.0189	.001
.4351	.0185	.001
.4396	.018	.001
.4468	.0173	.001
.4558	.0165	.001
.4598	.0161	.001
.4651	.0157	.001
.4669	.0155	.001
.4709	.0152	.001
.4743	.0148	.001
.4783	.0144	.001
.4827	.0141	.001
.4884	.0136	.001
.4919	.0133	.001
.495	.013	.001
.4988	.0127	.001
.5031	.0124	.001
.5063	.0122	.001
.5098	.0119	.001
.5162	.0115	.001
.5201	.0111	.001
.5252	.0108	.001
.5297	.0105	.001
.5327	.0102	.001
.5395	.0099	.001
.5408	.0097	.001
.545	.0094	.001
.5474	.0093	.001
.5518	.009	.001
.5568	.0087	.001
.5678	.0085	.001
.5678	.0085	.001
.5808	.0079	.001
.6163	.0064	.001
.6767	.0039	.001

System: disodium hydrogen phosphate + water + 1-butylpyridinium tetrafluoroborate; phases: Liquid mixture 1, Liquid mixture 2
Property: Mass fraction of disodium hydrogen phosphate (Liquid mixture 1); method: atomic absorption spectroscopy
Property: Mass fraction of 1-butylpyridinium tetrafluoroborate (Liquid mixture 2); method: atomic absorption spectroscopy
Property: Mass fraction of disodium hydrogen phosphate (Liquid mixture 2); method: atomic absorption spectroscopy
Temperature, K	Pressure, kPa	Mass fraction of 1-butylpyridinium tetrafluoroborate	Mass fraction of disodium hydrogen phosphate	uncertainty	Mass fraction of 1-butylpyridinium tetrafluoroborate	uncertainty	Mass fraction of disodium hydrogen phosphate	uncertainty
298.15	101.325	.6943	.0033	.001	.1494	.001	.0577	.001
298.15	101.325	.5807	.0077	.001	.2603	.001	.0397	.001
298.15	101.325	.6143	.0061	.001	.2255	.001	.045	.001

System: water + sodium sulfate + 1-butylpyridinium tetrafluoroborate; phases: Liquid mixture 1, Liquid mixture 2
Fixed: Pressure, kPa = 101
Fixed: Temperature, K = 298.15
Property: Mass fraction of water (Liquid mixture 1); method: Titration method
Mass fraction of 1-butylpyridinium tetrafluoroborate	Mass fraction of water	uncertainty
.1088	.1068	.001
.1168	.1044	.001
.1194	.0994	.001
.1244	.096	.001
.1258	.0934	.001
.1274	.0916	.001
.133	.0901	.001
.1352	.0868	.001
.1414	.0846	.001
.1493	.0802	.001
.15	.0783	.001
.1596	.0748	.001
.1657	.0719	.001
.1723	.0691	.001
.1783	.0666	.001
.1854	.064	.001
.1914	.0613	.001
.1998	.0592	.001
.2053	.0572	.001
.212	.0554	.001
.2166	.054	.001
.2229	.0523	.001
.23	.0507	.001
.2394	.0487	.001
.2479	.0468	.001
.258	.0449	.001
.2679	.0431	.001
.2775	.0413	.001
.2887	.0394	.001
.2936	.0386	.001
.3069	.0366	.001
.3208	.0348	.001
.3378	.0339	.001
.3494	.0323	.001
.3619	.0306	.001
.3752	.0289	.001
.3844	.0277	.001
.3957	.0267	.001
.4115	.0252	.001
.4265	.0234	.001
.4401	.0222	.001
.4547	.0208	.001
.4705	.0194	.001
.4814	.0184	.001
.4927	.0173	.001
.5067	.0159	.001
.519	.0147	.001
.5295	.0142	.001
.547	.013	.001
.5612	.0118	.001
.5749	.0109	.001
.5923	.0102	.001
.6147	.0086	.001
.6344	.0079	.001
.6915	.0065	.001
.7485	.0036	.001

System: water + sodium sulfate + 1-butylpyridinium tetrafluoroborate; phases: Liquid mixture 1, Liquid mixture 2
Property: Mass fraction of sodium sulfate (Liquid mixture 1); method: atomic absorption spectroscopy
Property: Mass fraction of 1-butylpyridinium tetrafluoroborate (Liquid mixture 2); method: atomic absorption spectroscopy
Property: Mass fraction of sodium sulfate (Liquid mixture 2); method: atomic absorption spectroscopy
Temperature, K	Pressure, kPa	Mass fraction of 1-butylpyridinium tetrafluoroborate	Mass fraction of sodium sulfate	uncertainty	Mass fraction of 1-butylpyridinium tetrafluoroborate	uncertainty	Mass fraction of sodium sulfate	uncertainty
298.15	101.325	.7353	.0034	.001	.2111	.001	.0554	.001
298.15	101.325	.8126	.0025	.001	.1658	.001	.0718	.001
298.15	101.325	.8887	.0008	.001	.1498	.001	.0781	.001

System: water + ammonium sulfate + 1-butylpyridinium tetrafluoroborate; phases: Liquid mixture 1, Liquid mixture 2
Fixed: Temperature, K = 298.15
Fixed: Pressure, kPa = 101
Property: Mass fraction of ammonium sulfate (Liquid mixture 1); method: Titration method
Mass fraction of 1-butylpyridinium tetrafluoroborate	Mass fraction of ammonium sulfate	uncertainty
.0695	.1916	.001
.0707	.1893	.001
.0719	.1874	.001
.073	.1854	.001
.0743	.1835	.001
.0755	.1813	.001
.077	.1793	.001
.0781	.1775	.001
.0798	.1749	.001
.0813	.1725	.001
.0825	.1709	.001
.0839	.169	.001
.0854	.1663	.001
.0866	.1648	.001
.0879	.163	.001
.0893	.1612	.001
.0909	.1591	.001
.093	.1564	.001
.0951	.1539	.001
.0967	.1517	.001
.0982	.15	.001
.0997	.1483	.001
.1024	.1452	.001
.1042	.1432	.001
.1061	.1412	.001
.1081	.1391	.001
.1097	.1376	.001
.1123	.1351	.001
.1149	.1326	.001
.1168	.1308	.001
.1189	.1287	.001
.121	.1269	.001
.1235	.1246	.001
.1262	.1226	.001
.1291	.1199	.001
.1317	.118	.001
.134	.1158	.001
.1364	.1138	.001
.1389	.1128	.001
.1417	.11	.001
.144	.1084	.001
.1463	.1069	.001
.1486	.1054	.001
.1513	.1038	.001
.1545	.102	.001
.1577	.1	.001
.1605	.0982	.001
.1644	.0965	.001
.1676	.0944	.001
.1714	.093	.001
.1751	.0916	.001
.1784	.0897	.001
.1838	.0882	.001
.1891	.0846	.001
.1943	.0829	.001
.1986	.0803	.001
.204	.0789	.001
.2091	.077	.001
.2141	.0747	.001
.2183	.0732	.001
.2233	.0719	.001
.2283	.0699	.001
.2332	.069	.001
.2443	.0655	.001
.2509	.0641	.001
.2564	.0627	.001
.2617	.0612	.001
.2686	.0603	.001
.2745	.0591	.001
.2809	.0575	.001
.288	.0571	.001
.2916	.0549	.001
.3035	.0546	.001
.2957	.0544	.001
.3111	.0526	.001
.3183	.0512	.001
.328	.0506	.001
.3361	.0483	.001
.3424	.047	.001
.3504	.0464	.001
.3622	.0457	.001
.376	.0439	.001
.3911	.0413	.001
.4043	.0391	.001
.4237	.0376	.001
.4495	.0356	.001
.4805	.0322	.001
.5242	.0284	.001
.5764	.0231	.001
.7645	.0196	.001

System: water + ammonium sulfate + 1-butylpyridinium tetrafluoroborate; phases: Liquid mixture 1, Liquid mixture 2
Property: Mass fraction of ammonium sulfate (Liquid mixture 1); method: electrical conductivity
Property: Mass fraction of 1-butylpyridinium tetrafluoroborate (Liquid mixture 2); method: electrical conductivity
Property: Mass fraction of ammonium sulfate (Liquid mixture 2); method: electrical conductivity
Temperature, K	Pressure, kPa	Mass fraction of 1-butylpyridinium tetrafluoroborate	Mass fraction of ammonium sulfate	uncertainty	Mass fraction of 1-butylpyridinium tetrafluoroborate	uncertainty	Mass fraction of ammonium sulfate	uncertainty
298.15	101.325	.7256	.0182	.001	.1891	.001	.0836	.001
298.15	101.325	.6505	.0217	.001	.2188	.001	.0737	.001
298.15	101.325	.8441	.014	.001	.1166	.001	.1252	.001

System: sodium chloride + water + 1-butylpyridinium tetrafluoroborate; phases: Liquid mixture 1, Liquid mixture 2
Fixed: Temperature, K = 298.15
Fixed: Pressure, kPa = 101
Property: Mass fraction of water (Liquid mixture 1); method: Titration method
Mass fraction of 1-butylpyridinium tetrafluoroborate	Mass fraction of water	uncertainty
.3021	.1561	.001
.3126	.1497	.001
.32	.1459	.001
.3303	.1413	.001
.3387	.1374	.001
.345	.1342	.001
.3659	.1268	.001
.3997	.1158	.001
.4067	.1126	.001
.4393	.1021	.001
.4747	.0951	.001
.5535	.077	.001
.6042	.0689	.001

System: sodium chloride + water + 1-butylpyridinium tetrafluoroborate; phases: Liquid mixture 1, Liquid mixture 2
Property: Mass fraction of sodium chloride (Liquid mixture 1); method: atomic absorption spectroscopy
Property: Mass fraction of 1-butylpyridinium tetrafluoroborate (Liquid mixture 2); method: atomic absorption spectroscopy
Property: Mass fraction of sodium chloride (Liquid mixture 2); method: atomic absorption spectroscopy
Temperature, K	Pressure, kPa	Mass fraction of 1-butylpyridinium tetrafluoroborate	Mass fraction of sodium chloride	uncertainty	Mass fraction of 1-butylpyridinium tetrafluoroborate	uncertainty	Mass fraction of sodium chloride	uncertainty
298.15	101.325	.7194	.0531	.001	.2611	.001	.1802	.001
298.15	101.325	.6933	.0562	.001	.2813	.001	.167	.001
298.15	101.325	.6017	.0691	.001	.3147	.001	.1488	.001
