Measured thermophysical data. Experimental results and thermodynamic investigation of carbon dioxide  solubility in heavy liquid hydrocarbons and corresponding phase properties
Source: Fluid Phase Equilib., 2013, 10.1016/j.fluid.2012.11.039
Compound 1: carbon dioxide, CO2, purity 99.998%
Compound 2: n-decane, C10H22, purity 99%
Compound 3: octadecane, C18H38, purity 99%

System: n-decane; phases: Liquid
Property: Mass density, kg/m3 (Liquid); method: Vibrating tube method
Temperature, K	Pressure, kPa	Mass density, kg/m3	uncertainty
373.2	100	667.1	.1
373.2	1000	668.4	.1
373.2	2000	669.6	.1
373.2	3000	670.9	.1
373.2	4000	672.1	.1
373.2	5000	673.4	.1
373.2	6000	674.5	.1
373.2	7000	675.7	.1
373.2	8000	676.9	.1
373.2	9000	678.1	.1
373.2	10000	679.2	.1

System: octadecane; phases: Liquid
Property: Mass density, kg/m3 (Liquid); method: Vibrating tube method
Temperature, K	Pressure, kPa	Mass density, kg/m3	uncertainty
372.9	1010	728.2	.1
372.9	2010	729.2	.1
372.9	3020	730.2	.1
372.9	4000	731.1	.1
372.9	5000	732	.1
372.9	6020	732.9	.1
372.9	7010	733.8	.1
372.9	8000	734.7	.1
372.9	8990	735.6	.1
372.9	9980	736.4	.1

System: n-decane + octadecane; phases: Liquid
Property: Mass density, kg/m3 (Liquid); method: Other
Mole fraction of octadecane	Temperature, K	Pressure, kPa	Mass density, kg/m3	uncertainty
0	373.2	100	667.1	.1
0	373.2	1000	668.4	.1
0	373.2	2000	669.6	.1
0	373.2	3000	670.9	.1
0	373.2	4000	672.1	.1
0	373.2	5000	673.4	.1
0	373.2	6000	674.5	.1
0	373.2	7000	675.7	.1
0	373.2	8000	676.9	.1
0	373.2	9000	678.1	.1
0	373.2	10000	679.2	.1
.25	372.7	100	689.9	.1
.25	372.7	1010	691	.1
.25	372.7	2010	692.2	.1
.25	372.7	3020	693.3	.1
.25	372.7	4010	694.4	.1
.25	372.7	5010	695.5	.1
.25	372.7	6010	696.6	.1
.25	372.7	7010	697.7	.1
.25	372.7	8010	698.7	.1
.25	372.7	9020	699.8	.1
.25	372.7	10010	700.8	.1
.5	372.8	100	705.7	.1
.5	372.8	1020	706.8	.1
.5	372.8	2020	707.8	.1
.5	372.8	2940	708.7	.1
.5	372.8	4010	709.9	.1
.5	372.8	5010	710.9	.1
.5	372.8	6000	711.9	.1
.5	372.8	7000	712.9	.1
.5	372.8	8000	713.9	.1
.5	372.8	9010	714.8	.1
.5	372.8	10010	715.8	.1
.75	372.8	100	717.8	.1
.75	372.8	1050	718.9	.1
.75	372.8	2020	719.9	.1
.75	372.8	3000	720.8	.1
.75	372.8	4000	721.8	.1
.75	372.8	5010	722.8	.1
.75	372.8	6000	723.7	.1
.75	372.8	7010	724.6	.1
.75	372.8	8000	725.5	.1
.75	372.8	8990	726.4	.1
.75	372.8	10010	727.4	.1
1	372.9	1010	728.2	.1
1	372.9	2010	729.2	.1
1	372.9	3020	730.2	.1
1	372.9	4000	731.1	.1
1	372.9	5000	732	.1
1	372.9	6020	732.9	.1
1	372.9	7010	733.8	.1
1	372.9	8000	734.7	.1
1	372.9	8990	735.6	.1
1	372.9	9980	736.4	.1

System: n-decane + carbon dioxide + octadecane; phases: Liquid, Gas
Fixed: Temperature, K = 372.8
Property: Mole fraction of carbon dioxide (Liquid); method: Chromatography
Pressure, kPa	Solvent: Mole fraction of n-decane	Mole fraction of carbon dioxide	uncertainty
950	0	.082	.001
2010	0	.152	.001
3080	0	.219	.001
4050	0	.278	.001
5080	0	.338	.001
5990	0	.378	.001
980	.75	.067	.001
1890	.75	.128	.001
3000	.75	.195	.001
3980	.75	.259	.001
5030	.75	.309	.001
5930	.75	.358	.001
990	.5	.071	.001
2040	.5	.143	.001
3030	.5	.203	.001
4030	.5	.265	.001
4970	.5	.313	.001
5930	.5	.358	.001
1060	.25	.082	.001
2000	.25	.147	.001
2980	.25	.21	.001
4030	.25	.267	.001
5010	.25	.322	.001
5950	.25	.367	.001

System: n-decane + carbon dioxide + octadecane; phases: Liquid, Gas
Property: Viscosity, Pa*s (Liquid); method: Capillary tube (Ostwald; Ubbelohde) method
Pressure, kPa	Solvent: Mole fraction of n-decane	Mole fraction of carbon dioxide	Viscosity, Pa*s	uncertainty
950	0	.082	.00102	.000051
2010	0	.152	.000924	.0000462
3080	0	.219	.000829	.00004145
4050	0	.278	.000754	.0000377
5080	0	.338	.000691	.00003455
5990	0	.378	.00064	.000032
980	.75	.067	.000448	.0000224
1890	.75	.128	.00043	.0000215
3000	.75	.195	.000394	.0000197
3980	.75	.259	.000375	.00001875
5030	.75	.309	.000345	.00001725
5930	.75	.358	.000325	.00001625
990	.5	.071	.00063	.0000315
2040	.5	.143	.000565	.00002825
3030	.5	.203	.00052	.000026
4030	.5	.265	.00049	.0000245
4970	.5	.313	.000463	.00002315
5930	.5	.358	.000435	.00002175
1060	.25	.082	.000781	.00003905
2000	.25	.147	.000707	.00003535
2980	.25	.21	.000656	.0000328
4030	.25	.267	.00061	.0000305
5010	.25	.322	.00058	.000029
5950	.25	.367	.000551	.00002755

System: n-decane + carbon dioxide + octadecane; phases: Liquid, Gas
Fixed: Temperature, K = 372.8
Property: Mass density, kg/m3 (Liquid); method: Vibrating tube method
Pressure, kPa	Solvent: Mole fraction of n-decane	Mass density, kg/m3	uncertainty
950	0	729	.5
2010	0	730.1	.5
3080	0	731.4	.5
4050	0	732.6	.5
5080	0	734.2	.5
5990	0	735.3	.5
980	.75	691.4	.5
1890	.75	692.7	.5
3000	.75	694.6	.5
3980	.75	696	.5
5030	.75	697.7	.5
5930	.75	699.2	.5
990	.5	707.2	.5
2040	.5	708.7	.5
3030	.5	710.3	.5
4030	.5	711.6	.5
4970	.5	713.1	.5
5930	.5	714.5	.5
1060	.25	719.5	.5
2000	.25	720.7	.5
2980	.25	721.9	.5
4030	.25	723.3	.5
5010	.25	724.6	.5
5950	.25	726.1	.5

System: carbon dioxide + octadecane; phases: Liquid, Gas
Property: Vapor or sublimation pressure, kPa (Liquid); method: Other
Mole fraction of carbon dioxide	Temperature, K	Vapor or sublimation pressure, kPa	uncertainty
.082	372.8	950	10
.152	372.8	2010	10
.219	372.8	3080	10
.278	372.8	4050	10
.338	372.8	5080	10
.378	372.8	5990	10

System: carbon dioxide + octadecane; phases: Liquid, Gas
Property: Viscosity, Pa*s (Liquid); method: Capillary tube (Ostwald; Ubbelohde) method
Pressure, kPa	Mole fraction of carbon dioxide	Viscosity, Pa*s	uncertainty
950	.082	.00102	.000051
2010	.152	.000924	.0000462
3080	.219	.000829	.00004145
4050	.278	.000754	.0000377
5080	.338	.000691	.00003455
5990	.378	.00064	.000032

System: carbon dioxide + octadecane; phases: Liquid, Gas
Property: Mass density, kg/m3 (Liquid); method: Vibrating tube method
Pressure, kPa	Temperature, K	Mass density, kg/m3	uncertainty
950	372.8	729	.5
2010	372.8	730.1	.5
3080	372.8	731.4	.5
4050	372.8	732.6	.5
5080	372.8	734.2	.5
5990	372.8	735.3	.5
