Measured thermophysical data. Thermodynamic study of binary systems containing sulfur dioxide: measurements and molecular modelling
Source: Fluid Phase Equilib., 2011, 10.1016/j.fluid.2011.02.008
Compound 1: nitrogen, N2, purity 99.9%
Compound 2: oxygen, O2, purity 99.9%
Compound 3: sulfur dioxide, O2S, purity 99.9%

System: sulfur dioxide; phases: Liquid, Gas
Property: Vapor or sublimation pressure, kPa (Liquid); method: Closed cell (Static) method
Temperature, K	Vapor or sublimation pressure, kPa	uncertainty
343.15	1479	.2
373.15	2883	.2
413.15	5836	.4
343.15	1469	.2
413.15	5978	.4

System: sulfur dioxide + nitrogen; phases: Liquid, Gas
Property: Vapor or sublimation pressure, kPa (Liquid); method: Closed cell (Static) method
Temperature, K	Mole fraction of nitrogen	Vapor or sublimation pressure, kPa	uncertainty
323.15	.085	21184	.4
323.15	.073	18321	.4
323.15	.059	15087	.4
323.15	.047	12060	.4
323.15	.035	9102	.4
323.15	.022	6103	.4
323.15	.01	3142	.2
323.15	.004	1749	.2
343.15	0	1479	.2
343.15	.015	4379	.4
343.15	.031	7437	.4
343.15	.043	9756	.4
343.15	.057	12389	.4
343.15	.071	14835	.4
343.15	.086	17716	.4
343.15	.101	20610	.4
343.15	.116	23076	.4
373.15	0	2883	.2
373.15	.007	3868	.2
373.15	.011	4524	.4
373.15	.018	5518	.4
373.15	.026	6668	.4
373.15	.039	8431	.4
373.15	.049	9783	.4
373.15	.008	4016	.4
373.15	.017	5249	.4
373.15	.031	7367	.4
373.15	.04	8609	.4
373.15	.06	11156	.4
373.15	.086	14368	.4
373.15	.114	17502	.4
373.15	.129	19159	.4
373.15	.174	23530	.4
413.15	0	5836	.4
413.15	.003	6132	.4
413.15	.012	6972	.4
413.15	.02	7673	.4
413.15	.028	8322	.4
413.15	.04	9216	.4
413.15	.052	10119	.4
413.15	.061	10733	.4
413.15	.068	11170	.4
413.15	.075	11639	.4
413.15	.084	12224	.4
413.15	.024	7986	.4
413.15	.044	9508	.4
413.15	.064	10877	.4
413.15	.094	12542	.4
413.15	.129	13882	.4

System: sulfur dioxide + nitrogen; phases: Gas, Liquid
Property: Mole fraction of nitrogen (Gas); method: Chromatography
Temperature, K	Mole fraction of nitrogen	Mole fraction of nitrogen	uncertainty
323.15	.085	.879	.028128
323.15	.073	.876	.028032
323.15	.059	.873	.027936
323.15	.047	.865	.02768
323.15	.035	.85	.0272
323.15	.022	.808	.025856
323.15	.01	.683	.021856
323.15	.004	.472	.015104
343.15	0	0	0
343.15	.015	.602	.019264
343.15	.031	.725	.0232
343.15	.043	.765	.02448
343.15	.057	.789	.025248
343.15	.071	.8	.0256
343.15	.086	.805	.02576
343.15	.101	.809	.025888
343.15	.116	.808	.025856
373.15	0	0	0
373.15	.007	.151	.004832
373.15	.011	.29	.00928
373.15	.018	.385	.01232
373.15	.026	.455	.01456
373.15	.039	.526	.016832
373.15	.049	.566	.018112
373.15	.008	.229	.007328
373.15	.017	.368	.011776
373.15	.031	.494	.015808
373.15	.04	.536	.017152
373.15	.06	.591	.018912
373.15	.086	.638	.020416
373.15	.114	.644	.020608
373.15	.129	.643	.020576
373.15	.174	.636	.020352
413.15	0	0	0
413.15	.003	.023	.000736
413.15	.012	.084	.002688
413.15	.02	.124	.003968
413.15	.028	.155	.00496
413.15	.04	.188	.006016
413.15	.052	.213	.006816
413.15	.061	.226	.007232
413.15	.068	.233	.007456
413.15	.075	.238	.007616
413.15	.084	.243	.007776
413.15	.024	.138	.004416
413.15	.044	.196	.006272
413.15	.064	.23	.00736
413.15	.094	.246	.007872
413.15	.129	.244	.007808

System: sulfur dioxide + oxygen; phases: Liquid, Gas
Property: Vapor or sublimation pressure, kPa (Liquid); method: Closed cell (Static) method
Temperature, K	Mole fraction of oxygen	Vapor or sublimation pressure, kPa	uncertainty
323.15	.116	18446	.4
323.15	.125	19958	.4
323.15	.093	15084	.4
323.15	.074	12141	.4
323.15	.054	9085	.4
323.15	.041	7046	.4
323.15	.022	4227	.4
343.15	0	1469	.2
343.15	.023	4567	.4
343.15	.045	7539	.4
343.15	.063	9823	.4
343.15	.081	12009	.4
343.15	.107	15233	.4
343.15	.125	17395	.4
343.15	.149	20220	.4
373.15	.05	8192	.4
373.15	.081	11171	.4
373.15	.111	13989	.4
373.15	.149	17014	.4
373.15	.19	19967	.4
413.15	0	5978	.4
413.15	.034	8358	.4
413.15	.056	9740	.4
413.15	.097	11754	.4
413.15	.108	12161	.4
413.15	.129	12774	.4
413.15	.151	13234	.4
413.15	.141	13102	.4

System: sulfur dioxide + oxygen; phases: Gas, Liquid
Property: Mole fraction of oxygen (Gas); method: Chromatography
Temperature, K	Mole fraction of oxygen	Mole fraction of oxygen	uncertainty
323.15	.116	.879	.028128
323.15	.125	.88	.02816
323.15	.093	.878	.028096
323.15	.074	.87	.02784
323.15	.054	.853	.027296
323.15	.041	.832	.026624
323.15	.022	.758	.024256
343.15	0	0	0
343.15	.023	.62	.01984
343.15	.045	.733	.023456
343.15	.063	.77	.02464
343.15	.081	.79	.02528
343.15	.107	.806	.025792
343.15	.125	.809	.025888
343.15	.149	.81	.02592
373.15	.05	.524	.016768
373.15	.081	.594	.019008
373.15	.111	.626	.020032
373.15	.149	.639	.020448
373.15	.19	.637	.020384
413.15	0	0	0
413.15	.034	.149	.004768
413.15	.056	.198	.006336
413.15	.097	.234	.007488
413.15	.108	.235	.00752
413.15	.129	.229	.007328
413.15	.151	.22	.00704
413.15	.141	.228	.007296
