Measured thermophysical data. Experimental isobaric vapor-liquid equilibrium for ternary system of sec-butyl alcohol + sec-butyl acetate + N,N-dimethyl formamide at 101.3 kPa
Source: Fluid Phase Equilib., 2014, 10.1016/j.fluid.2014.09.021
Compound 1: sec-butyl alcohol, C4H10O, purity 99%
Compound 2: sec-butyl acetate, C6H12O2, purity 99.7%
Compound 3: dimethylformamide, C3H7NO, purity 99.8%

System: dimethylformamide + sec-butyl alcohol; phases: Liquid, Gas
Fixed: Pressure, kPa = 101.3
Property: Boiling temperature at pressure P, K (Liquid); method: Ebulliometric method (Recirculating still)
Mole fraction of sec-butyl alcohol	Boiling temperature at pressure P, K	uncertainty
.969	374.1	.02
.924	375.36	.02
.88	376.61	.02
.81	378.78	.02
.758	380.69	.02
.694	383.06	.02
.567	387.71	.02
.513	390.35	.02
.463	392.85	.02
.401	395.75	.02
.335	399.57	.02
.282	403.09	.02
.219	407.6	.02
.187	409.75	.02
.159	412.15	.02
.117	415.17	.02
.095	417.14	.02
.064	419.83	.02
.047	421.41	.02
.033	422.57	.02
.016	424.08	.02

System: dimethylformamide + sec-butyl alcohol; phases: Gas, Liquid
Fixed: Pressure, kPa = 101.3
Property: Mole fraction of sec-butyl alcohol (Gas); method: Chromatography
Mole fraction of sec-butyl alcohol	Mole fraction of sec-butyl alcohol	uncertainty
.969	.996	.004
.924	.989	.004
.88	.981	.004
.81	.965	.004
.758	.949	.004
.694	.926	.004
.567	.868	.004
.513	.838	.004
.463	.802	.004
.401	.749	.004
.335	.684	.004
.282	.621	.004
.219	.529	.004
.187	.469	.004
.159	.416	.004
.117	.325	.004
.095	.269	.004
.064	.19	.004
.047	.138	.004
.033	.098	.004
.016	.049	.004

System: dimethylformamide + sec-butyl acetate; phases: Liquid, Gas
Fixed: Pressure, kPa = 101.3
Property: Boiling temperature at pressure P, K (Liquid); method: Ebulliometric method (Recirculating still)
Mole fraction of sec-butyl acetate	Boiling temperature at pressure P, K	uncertainty
.036	419.65	.02
.074	415.25	.02
.135	409.9	.02
.185	406.22	.02
.216	404.47	.02
.278	401.64	.02
.331	399.05	.02
.37	397.74	.02
.411	396.37	.02
.468	394.47	.02
.519	393.04	.02
.561	391.98	.02
.61	391.08	.02
.667	389.7	.02
.707	389.96	.02
.781	387.6	.02
.817	387.25	.02
.89	386.11	.02
.963	385.21	.02

System: dimethylformamide + sec-butyl acetate; phases: Gas, Liquid
Fixed: Pressure, kPa = 101.3
Property: Mole fraction of sec-butyl acetate (Gas); method: Chromatography
Mole fraction of sec-butyl acetate	Mole fraction of sec-butyl acetate	uncertainty
.036	.162	.004
.074	.282	.004
.135	.422	.004
.185	.506	.004
.216	.543	.004
.278	.619	.004
.331	.661	.004
.37	.688	.004
.411	.712	.004
.468	.746	.004
.519	.773	.004
.561	.79	.004
.61	.817	.004
.667	.839	.004
.707	.852	.004
.781	.887	.004
.817	.904	.004
.89	.939	.004
.963	.978	.004

System: dimethylformamide + sec-butyl alcohol + sec-butyl acetate; phases: Liquid, Gas
Property: Mole fraction of sec-butyl acetate (Liquid); method: Chromatography
Property: Mole fraction of sec-butyl alcohol (Gas); method: Chromatography
Property: Mole fraction of sec-butyl acetate (Gas); method: Chromatography
Temperature, K	Pressure, kPa	Mole fraction of sec-butyl alcohol	Mole fraction of sec-butyl acetate	uncertainty	Mole fraction of sec-butyl alcohol	uncertainty	Mole fraction of sec-butyl acetate	uncertainty
402.73	101.3	.288	.003	.004	.632	.004	.009	.004
402.78	101.3	.274	.011	.004	.601	.004	.035	.004
402.58	101.3	.254	.024	.004	.551	.004	.08	.004
401.83	101.3	.235	.045	.004	.502	.004	.129	.004
401.48	101.3	.21	.067	.004	.439	.004	.187	.004
401.38	101.3	.188	.085	.004	.394	.004	.234	.004
402.03	101.3	.158	.102	.004	.332	.004	.284	.004
401.74	101.3	.138	.123	.004	.296	.004	.325	.004
402.28	101.3	.118	.132	.004	.256	.004	.354	.004
402.21	101.3	.104	.149	.004	.226	.004	.383	.004
402.22	101.3	.091	.161	.004	.202	.004	.418	.004
401.97	101.3	.078	.173	.004	.172	.004	.44	.004
402.08	101.3	.069	.179	.004	.152	.004	.461	.004
402.27	101.3	.058	.188	.004	.13	.004	.477	.004
402.15	101.3	.052	.199	.004	.114	.004	.493	.004
402.37	101.3	.042	.203	.004	.092	.004	.5	.004
402.33	101.3	.031	.216	.004	.065	.004	.509	.004
