Measured thermophysical data. Vapor-Liquid Equilibrium for Tetrahydrofuran + Methanol + Tetrafluoroborate-based ionic liquids at  101.3 kPa
Source: Fluid Phase Equilib., 2013, 10.1016/j.fluid.2013.09.060
Compound 1: tetrahydrofuran, C4H8O, purity 99.9%
Compound 2: methanol, CH4O, purity 99.9%
Compound 3: 1-ethyl-3-methylimidazolium tetrafluoroborate, C6H11BF4N2, purity 99%
Compound 4: 1-butyl-3-methylimidazolium tetrafluoroborate, C8H15BF4N2, purity 99%

System: methanol + tetrahydrofuran; phases: Liquid, Gas
Property: Boiling temperature at pressure P, K (Liquid); method: Ebulliometric method (Recirculating still)
Mole fraction of tetrahydrofuran	Pressure, kPa	Boiling temperature at pressure P, K	uncertainty
.099	101.3	335.5	.1
.137	101.3	334.8	.1
.195	101.3	333.9	.1
.244	101.3	333.5	.1
.309	101.3	333.2	.1
.393	101.3	332.7	.1
.466	101.3	332.4	.1
.518	101.3	332.4	.1
.617	101.3	332.8	.1
.675	101.3	333	.1
.711	101.3	333.3	.1
.782	101.3	333.7	.1
.83	101.3	334.1	.1
.898	101.3	336.1	.1
.917	101.3	336.4	.1

System: methanol + tetrahydrofuran; phases: Gas, Liquid
Property: Mole fraction of tetrahydrofuran (Gas); method: Chromatography
Mole fraction of tetrahydrofuran	Pressure, kPa	Mole fraction of tetrahydrofuran	uncertainty
.099	101.3	.167	.002
.137	101.3	.224	.002
.195	101.3	.284	.002
.244	101.3	.332	.002
.309	101.3	.381	.002
.393	101.3	.433	.002
.466	101.3	.482	.002
.518	101.3	.507	.002
.617	101.3	.569	.002
.675	101.3	.61	.002
.711	101.3	.619	.002
.782	101.3	.689	.002
.83	101.3	.715	.002
.898	101.3	.802	.002
.917	101.3	.834	.002

System: methanol + tetrahydrofuran; phases: Liquid, Gas
Property: Azeotropic temperature, K (Liquid); method: By X=Y
Pressure, kPa	Azeotropic temperature, K	uncertainty
101.3	332.5	.1

System: methanol + tetrahydrofuran; phases: Liquid, Gas
Property: Azeotropic composition: mole fraction of tetrahydrofuran (Liquid); method: By X=Y
Pressure, kPa	Azeotropic composition: mole fraction of tetrahydrofuran	uncertainty
101.3	.513	.002

System: methanol + tetrahydrofuran + 1-ethyl-3-methylimidazolium tetrafluoroborate; phases: Liquid, Gas
Fixed: Pressure, kPa = 101.3
Property: Boiling temperature at pressure P, K (Liquid); method: Ebulliometric method (Recirculating still)
Mole fraction of 1-ethyl-3-methylimidazolium tetrafluoroborate	Solvent: Mole fraction of tetrahydrofuran	Boiling temperature at pressure P, K	uncertainty
.1	.099	337.1	.1
.101	.187	335	.1
.101	.309	334.2	.1
.099	.422	333.9	.1
.102	.499	333.7	.1
.099	.607	334.2	.1
.101	.709	334.9	.1
.1	.78	335.7	.1
.103	.899	336.7	.1
.201	.089	338.5	.1
.202	.174	336.6	.1
.2	.317	335.2	.1
.201	.397	334.5	.1
.199	.486	334.1	.1
.201	.59	334.6	.1
.2	.662	335.1	.1
.198	.753	336.1	.1
.202	.836	337.1	.1
.302	.089	341.3	.1
.298	.18	338.8	.1
.301	.287	337.2	.1
.302	.37	336.4	.1
.299	.466	335.7	.1
.301	.562	335.1	.1
.3	.714	335.8	.1
.301	.744	336.5	.1
.301	.803	337.6	.1

System: methanol + tetrahydrofuran + 1-ethyl-3-methylimidazolium tetrafluoroborate; phases: Gas, Liquid
Fixed: Pressure, kPa = 101.3
Property: Mole fraction of tetrahydrofuran (Gas); method: Chromatography
Mole fraction of 1-ethyl-3-methylimidazolium tetrafluoroborate	Solvent: Mole fraction of tetrahydrofuran	Mole fraction of tetrahydrofuran	uncertainty
.1	.099	.181	.002
.101	.187	.298	.002
.101	.309	.419	.002
.099	.422	.501	.002
.102	.499	.556	.002
.099	.607	.627	.002
.101	.709	.701	.002
.1	.78	.758	.002
.103	.899	.856	.002
.201	.089	.177	.002
.202	.174	.311	.002
.2	.317	.46	.002
.201	.397	.524	.002
.199	.486	.591	.002
.201	.59	.663	.002
.2	.662	.719	.002
.198	.753	.788	.002
.202	.836	.856	.002
.302	.089	.187	.002
.298	.18	.333	.002
.301	.287	.461	.002
.302	.37	.537	.002
.299	.466	.612	.002
.301	.562	.683	.002
.3	.714	.803	.002
.301	.744	.818	.002
.301	.803	.864	.002

System: methanol + tetrahydrofuran + 1-ethyl-3-methylimidazolium tetrafluoroborate; phases: Gas, Liquid
Fixed: Pressure, kPa = 101.3
Property: Mole fraction of methanol (Gas); method: Chromatography
Mole fraction of 1-ethyl-3-methylimidazolium tetrafluoroborate	Solvent: Mole fraction of tetrahydrofuran	Mole fraction of methanol	uncertainty
.1	.099	.819	.002
.101	.187	.702	.002
.101	.309	.581	.002
.099	.422	.499	.002
.102	.499	.444	.002
.099	.607	.373	.002
.101	.709	.299	.002
.1	.78	.242	.002
.103	.899	.144	.002
.201	.089	.823	.002
.202	.174	.689	.002
.2	.317	.54	.002
.201	.397	.476	.002
.199	.486	.409	.002
.201	.59	.337	.002
.2	.662	.281	.002
.198	.753	.212	.002
.202	.836	.144	.002
.302	.089	.813	.002
.298	.18	.667	.002
.301	.287	.539	.002
.302	.37	.463	.002
.299	.466	.388	.002
.301	.562	.317	.002
.3	.714	.197	.002
.301	.744	.182	.002
.301	.803	.136	.002

System: methanol + tetrahydrofuran + 1-butyl-3-methylimidazolium tetrafluoroborate; phases: Liquid, Gas
Fixed: Pressure, kPa = 101.3
Property: Boiling temperature at pressure P, K (Liquid); method: Ebulliometric method (Recirculating still)
Mole fraction of 1-butyl-3-methylimidazolium tetrafluoroborate	Solvent: Mole fraction of tetrahydrofuran	Boiling temperature at pressure P, K	uncertainty
.099	.08	337.7	.1
.1	.171	336.2	.1
.101	.293	335.3	.1
.102	.395	334.9	.1
.1	.508	334.5	.1
.099	.637	334.1	.1
.099	.739	334.9	.1
.101	.827	336.1	.1
.099	.903	337.1	.1
.2	.087	339.8	.1
.199	.184	338.3	.1
.199	.305	336.9	.1
.201	.391	336.3	.1
.198	.52	335.8	.1
.2	.596	335.7	.1
.2	.712	336.3	.1
.199	.811	337.4	.1
.201	.898	338.1	.1
.299	.086	342.3	.1
.3	.169	340.5	.1
.299	.266	339.6	.1
.299	.35	339.1	.1
.301	.512	338.1	.1
.299	.577	337.8	.1
.299	.706	337.3	.1
.299	.819	338.1	.1
.301	.91	338.5	.1

System: methanol + tetrahydrofuran + 1-butyl-3-methylimidazolium tetrafluoroborate; phases: Gas, Liquid
Fixed: Pressure, kPa = 101.3
Property: Mole fraction of tetrahydrofuran (Gas); method: Chromatography
Mole fraction of 1-butyl-3-methylimidazolium tetrafluoroborate	Solvent: Mole fraction of tetrahydrofuran	Mole fraction of tetrahydrofuran	uncertainty
.099	.08	.154	.002
.1	.171	.274	.002
.101	.293	.389	.002
.102	.395	.478	.002
.1	.508	.554	.002
.099	.637	.642	.002
.099	.739	.704	.002
.101	.827	.777	.002
.099	.903	.852	.002
.2	.087	.167	.002
.199	.184	.298	.002
.199	.305	.425	.002
.201	.391	.498	.002
.198	.52	.59	.002
.2	.596	.639	.002
.2	.712	.725	.002
.199	.811	.808	.002
.201	.898	.883	.002
.299	.086	.155	.002
.3	.169	.287	.002
.299	.266	.409	.002
.299	.35	.494	.002
.301	.512	.619	.002
.299	.577	.663	.002
.299	.706	.752	.002
.299	.819	.83	.002
.301	.91	.904	.002

System: methanol + tetrahydrofuran + 1-butyl-3-methylimidazolium tetrafluoroborate; phases: Gas, Liquid
Fixed: Pressure, kPa = 101.3
Property: Mole fraction of methanol (Gas); method: Chromatography
Mole fraction of 1-butyl-3-methylimidazolium tetrafluoroborate	Solvent: Mole fraction of tetrahydrofuran	Mole fraction of methanol	uncertainty
.099	.08	.846	.002
.1	.171	.726	.002
.101	.293	.611	.002
.102	.395	.522	.002
.1	.508	.446	.002
.099	.637	.358	.002
.099	.739	.296	.002
.101	.827	.223	.002
.099	.903	.148	.002
.2	.087	.833	.002
.199	.184	.702	.002
.199	.305	.575	.002
.201	.391	.502	.002
.198	.52	.41	.002
.2	.596	.361	.002
.2	.712	.275	.002
.199	.811	.192	.002
.201	.898	.117	.002
.299	.086	.845	.002
.3	.169	.713	.002
.299	.266	.591	.002
.299	.35	.506	.002
.301	.512	.381	.002
.299	.577	.337	.002
.299	.706	.248	.002
.299	.819	.17	.002
.301	.91	.096	.002
