Measured thermophysical data. Phase behaviour of high molecular mass methyl esters in supercritical ethane
Source: Fluid Phase Equilib., 2011, 10.1016/j.fluid.2011.08.015
Compound 1: ethane, C2H6, purity 99.95%
Compound 2: methyl decanoate, C11H22O2, purity 99%
Compound 3: methyl dodecanoate, C13H26O2, purity 99.5%
Compound 4: methyl tetradecanoate, C15H30O2, purity 98.5%
Compound 5: methyl hexadecanoate, C17H34O2, purity 99%
Compound 6: methyl octadecanoate, C19H38O2, purity 99%
Compound 7: methyl docosanoate, C23H46O2, purity 98%

System: ethane + methyl decanoate; phases: Gas, Liquid
Property: Vapor or sublimation pressure, kPa (Gas); method: Closed cell (Static) method
Mass fraction of methyl decanoate	Temperature, K	Vapor or sublimation pressure, kPa	uncertainty
.626	309.4	4660	60
.626	322.6	5910	60
.626	337	7290	60
.626	349.7	8690	60
.576	311.9	4860	60
.576	326.5	6250	60
.576	341.1	7860	60
.576	355.7	9450	60
.482	312.3	5070	60
.482	326.7	6620	60
.482	341	8350	60
.482	355.2	9990	60
.433	311.7	5080	60
.433	326.2	6670	60
.433	340.8	8550	60
.433	355.3	10230	60
.369	312	5140	60
.369	326.7	6790	60
.369	340.9	8610	60
.369	355.5	10390	60
.296	312.4	5290	60
.296	326.9	7080	60
.296	341.5	8960	60
.296	356.2	10640	60
.233	312.1	5280	60
.233	326.1	6970	60
.233	340.6	8770	60
.233	355	10350	60
.179	312.4	5370	60
.179	326.9	7130	60
.179	341.6	8850	60
.179	356.2	10390	60
.127	312.4	5410	60
.127	326.9	7070	60
.127	341.6	8750	60
.127	356.2	10150	60
.098	312.4	5480	60
.098	326.9	7120	60
.098	341.3	8700	60
.098	355.8	10030	60
.0675	312.3	5460	60
.0675	327	7010	60
.0675	341.4	8440	60
.0675	356	9600	60
.0492	311.8	5340	60
.0492	325.9	6810	60
.0492	339.9	8250	60
.0492	353.7	9390	60
.0337	312.3	5480	60
.0337	326.7	6740	60
.0286	311.4	5390	60
.0286	325.7	6750	60
.0286	339.8	7870	60
.019	311.2	5430	60
.019	324.9	6590	60

System: ethane + methyl dodecanoate; phases: Gas, Liquid
Property: Vapor or sublimation pressure, kPa (Gas); method: Closed cell (Static) method
Mass fraction of methyl dodecanoate	Temperature, K	Vapor or sublimation pressure, kPa	uncertainty
.635	311.4	4800	60
.635	325.7	6240	60
.635	340.1	7760	60
.635	354.4	9320	60
.561	312.3	5200	60
.561	327.2	6920	60
.561	341.8	8730	60
.561	356.5	10470	60
.445	311.8	5280	60
.445	326.2	7210	60
.445	340.7	9270	60
.445	355.2	11120	60
.363	312.3	5340	60
.363	327.1	7550	60
.363	341.8	9630	60
.363	356.5	11370	60
.294	312.3	5380	60
.294	327.1	7620	60
.294	341.7	9690	60
.294	356.5	11440	60
.232	312.4	5480	60
.232	327.2	7660	60
.232	341.7	9730	60
.232	356.4	11410	60
.175	312.4	5430	60
.175	327	7590	60
.175	341.7	9560	60
.175	356.3	11160	60
.121	312.5	5460	60
.121	327.1	7530	60
.121	341.7	9400	60
.121	356.5	10930	60
.0844	312.5	5520	60
.0844	327.1	7480	60
.0844	341.7	9250	60
.0844	356.3	10690	60
.0656	312.5	5460	60
.0656	327.1	7440	60
.0656	341.7	9170	60
.0656	356.5	10550	60
.0286	312.4	5530	60
.0286	327	7290	60
.0286	341.6	8770	60
.0286	356.4	9930	60
.0183	312.3	5450	60
.0183	327	7120	60
.0183	341.6	8240	60
.0183	356.4	9060	60

System: ethane + methyl tetradecanoate; phases: Gas, Liquid
Property: Vapor or sublimation pressure, kPa (Gas); method: Closed cell (Static) method
Mass fraction of methyl tetradecanoate	Temperature, K	Vapor or sublimation pressure, kPa	uncertainty
.652	312.2	5110	60
.652	326.3	6650	60
.652	340.9	8380	60
.652	355.2	10060	60
.552	312.9	5550	60
.552	328.4	7740	60
.552	342.6	9710	60
.552	355	11420	60
.454	312.3	5640	60
.454	326.3	7800	60
.454	340.6	9910	60
.454	355	11850	60
.385	312.2	5810	60
.385	326.3	8320	60
.385	340.3	10460	60
.385	354	12300	60
.302	311.8	5630	60
.302	326.2	8160	60
.302	340.6	10390	60
.302	355.1	12310	60
.261	312	5930	60
.261	326.3	8460	60
.261	340.5	10600	60
.261	355	12500	60
.245	312	5940	60
.245	326.3	8430	60
.245	340.7	10600	60
.245	355.1	12500	60
.236	311.8	5940	60
.236	326.2	8480	60
.236	341	10740	60
.236	355.1	12600	60
.171	311.8	5860	60
.171	326.3	8330	60
.171	340.6	10440	60
.171	356.1	12360	60
.121	312.6	5930	60
.121	327.2	8340	60
.121	342.1	10410	60
.121	357	12160	60
.0955	313	6010	60
.0955	327.3	8320	60
.0955	342.2	10340	60
.0955	356.8	12050	60
.0587	311.6	5520	60
.0587	326	7810	60
.0587	340.5	9780	60
.0587	354.9	11390	60
.0304	312.7	5830	60
.0304	327.3	7810	60
.0304	342.2	9500	60
.0304	356.4	10800	60
.0249	312.7	5770	60
.0249	327.3	7510	60
.0249	342	8830	60
.0189	312	5510	60
.0189	327.2	7120	60
.0189	342.6	8360	60
.0189	357.9	9460	60

System: ethane + methyl hexadecanoate; phases: Gas, Liquid
Property: Vapor or sublimation pressure, kPa (Gas); method: Closed cell (Static) method
Mass fraction of methyl hexadecanoate	Temperature, K	Vapor or sublimation pressure, kPa	uncertainty
.63	311.7	5210	60
.63	326	7020	60
.63	340.4	9010	60
.63	354.6	10900	60
.528	311.8	5640	60
.528	326.2	8080	60
.528	340.6	10400	60
.528	355	12310	60
.454	311.7	6230	60
.454	326.2	8820	60
.454	340.6	11140	60
.454	355	13170	60
.354	311.7	6610	60
.354	326.2	9250	60
.354	340.6	11530	60
.354	355.1	13570	60
.294	311.7	6660	60
.294	326.1	9310	60
.294	340.5	11580	60
.294	355	13580	60
.22	311.5	6500	60
.22	325.9	9120	60
.22	340.4	11350	60
.22	354.8	13260	60
.179	312.5	6550	60
.179	327.1	9090	60
.179	341.7	11280	60
.179	356.4	13070	60
.119	312.4	6270	60
.119	327	8780	60
.119	341.7	10910	60
.119	356.5	12630	60
.0798	312.2	6090	60
.0798	326.9	8480	60
.0798	341.5	10530	60
.0798	356.2	12180	60
.0524	312.3	5850	60
.0524	326.9	8160	60
.0524	341.5	10050	60
.0524	356.2	11570	60
.0269	312.4	5720	60
.0269	327.1	7850	60
.0269	341.6	9580	60
.0269	356.4	10910	60
.0172	312.4	5670	60
.0172	327	7670	60
.0172	341.5	9280	60
.0172	356.4	10530	60

System: ethane + methyl octadecanoate; phases: Gas, Liquid
Property: Vapor or sublimation pressure, kPa (Gas); method: Closed cell (Static) method
Mass fraction of methyl octadecanoate	Temperature, K	Vapor or sublimation pressure, kPa	uncertainty
.618	312.2	5570	60
.618	326.2	7730	60
.618	340.7	9650	60
.618	354.9	11670	60
.502	311.8	6830	60
.502	326.1	9350	60
.502	340.5	11710	60
.502	354.9	13800	60
.367	311.8	7750	60
.367	326.2	10380	60
.367	340.6	12730	60
.367	354.9	14800	60
.304	311.7	7880	60
.304	326.2	10570	60
.304	340.2	12840	60
.304	354.8	14790	60
.228	312.4	7860	60
.228	327.1	10520	60
.228	341.7	12810	60
.228	356.3	14720	60
.178	312.4	7650	60
.178	327	10240	60
.178	341.7	12510	60
.178	356.5	14390	60
.12	312.4	7380	60
.12	327.1	9980	60
.12	341.6	12170	60
.12	356.2	13970	60
.0824	312.5	7060	60
.0824	327.1	9550	60
.0824	341.7	11610	60
.0824	356.2	13270	60
.0487	312.5	6450	60
.0487	327.2	9020	60
.0487	341.7	10970	60
.0487	356.4	12960	60
.0285	312.5	6210	60
.0285	327	8450	60
.0285	341.7	10450	60
.0285	356.5	11830	60
.0175	312.3	5950	60
.0175	327	8200	60
.0175	341.6	10030	60
.0175	356.4	11550	60

System: ethane + methyl docosanoate; phases: Gas, Liquid
Property: Vapor or sublimation pressure, kPa (Gas); method: Closed cell (Static) method
Mass fraction of methyl docosanoate	Temperature, K	Vapor or sublimation pressure, kPa	uncertainty
.648	325.8	7400	60
.648	340.1	9300	60
.648	354.4	11270	60
.617	325.9	8470	60
.617	340.3	10780	60
.617	355.1	12580	60
.583	326.1	9890	60
.583	340.7	11910	60
.583	355.2	14000	60
.508	326.4	11410	60
.508	340.7	13790	60
.508	355.1	15930	60
.431	325.9	12300	60
.431	340.5	14710	60
.431	354.9	16820	60
.392	326	12520	60
.392	340.1	14830	60
.392	354.5	16880	60
.306	326.3	12850	60
.306	340.7	15150	60
.306	355.2	17140	60
.238	326.1	12580	60
.238	340.5	14900	60
.238	355.1	16920	60
.18	326	12310	60
.18	340.5	14580	60
.18	355	16540	60
.116	325.9	11540	60
.116	340.4	13770	60
.116	354.8	15660	60
.0715	326.9	11040	60
.0715	341.5	13190	60
.0715	356.3	15040	60
.0553	327	10300	60
.0553	341.6	12520	60
.0553	356.3	14010	60
.027	327.1	9200	60
.027	341.8	11340	60
.027	356.5	12910	60
.0172	327	8460	60
.0172	341.6	10530	60
.0172	356.4	12370	60
