Measured thermophysical data. Solubility of pharmaceuticals in water and alcohols
Source: Fluid Phase Equilib., 2015, 10.1016/j.fluid.2015.02.018
Compound 1: aminophylline, C9H16N6O2, purity 99%
Compound 2: (-)-lobeline hydrochloride, C22H27NO2, purity 99%
Compound 3: perphenazine, C21H28ClN3OS, purity 99%
Compound 4: indomethacin, C19H16ClNO4, purity 99%
Compound 5: water, H2O, purity 99.8%
Compound 6: ethanol, C2H6O, purity 99.8%
Compound 7: 1-octanol, C8H18O, purity 99.8%

System: aminophylline; phases: Crystal, Liquid, Air at 1 atmosphere
Property: Normal melting temperature, K (Crystal); method: DSC/DTA
Normal melting temperature, K	uncertainty
542.2	.1

System: aminophylline; phases: Crystal, Liquid, Air at 1 atmosphere
Property: Molar enthalpy of transition or fusion, kJ/mol (Crystal); method: DSC
Molar enthalpy of transition or fusion, kJ/mol	uncertainty
25.9	.1

System: (-)-lobeline hydrochloride; phases: Crystal, Liquid, Air at 1 atmosphere
Property: Normal melting temperature, K (Crystal); method: DSC/DTA
Normal melting temperature, K	uncertainty
466.3	.1

System: (-)-lobeline hydrochloride; phases: Crystal, Liquid, Air at 1 atmosphere
Property: Molar enthalpy of transition or fusion, kJ/mol (Crystal); method: DSC
Molar enthalpy of transition or fusion, kJ/mol	uncertainty
76.1	.1

System: perphenazine; phases: Crystal, Liquid, Air at 1 atmosphere
Property: Normal melting temperature, K (Crystal); method: DSC/DTA
Normal melting temperature, K	uncertainty
366.8	.1

System: perphenazine; phases: Crystal, Liquid, Air at 1 atmosphere
Property: Molar enthalpy of transition or fusion, kJ/mol (Crystal); method: DSC
Molar enthalpy of transition or fusion, kJ/mol	uncertainty
45.3	.1

System: perphenazine; phases: Glass, Liquid, Air at 1 atmosphere
Property: Triple point temperature, K (Glass); method: DSC/DTA
Triple point temperature, K	uncertainty
291.8	.1

System: indomethacin; phases: Crystal, Liquid, Air at 1 atmosphere
Property: Normal melting temperature, K (Crystal); method: DSC/DTA
Normal melting temperature, K	uncertainty
433.6	.1

System: indomethacin; phases: Crystal, Liquid, Air at 1 atmosphere
Property: Molar enthalpy of transition or fusion, kJ/mol (Crystal); method: DSC
Molar enthalpy of transition or fusion, kJ/mol	uncertainty
75.4	.1

System: aminophylline + water; phases: Liquid, Crystal
Fixed: Pressure, kPa = 101.3
Property: Solid-liquid equilibrium temperature, K (Liquid); method: Visual observation
Mole fraction of aminophylline	Solid-liquid equilibrium temperature, K	uncertainty
.0023	300.9	.1
.0025	301.6	.1
.0029	303.6	.1
.0033	306.8	.1
.0047	311.5	.1
.0047	312.2	.1
.0055	313.7	.1
.0063	314.9	.1
.0077	315.9	.1
.0088	318.4	.1
.0112	323	.1
.0151	324.9	.1
.019	329.2	.1
.0227	331.6	.1
.0255	332.8	.1
.0326	336.3	.1
.041	349.3	.1
.0468	353.3	.1

System: ethanol + aminophylline; phases: Liquid, Crystal
Fixed: Pressure, kPa = 101.3
Property: Solid-liquid equilibrium temperature, K (Liquid); method: Visual observation
Mole fraction of aminophylline	Solid-liquid equilibrium temperature, K	uncertainty
.0009	313.2	.1
.0011	313.9	.1
.0012	314.4	.1
.0016	316.9	.1
.0017	317.4	.1
.0019	318.6	.1
.0029	331.1	.1
.0036	333.5	.1
.0041	335.8	.1
.0044	337.4	.1
.0046	338	.1
.0048	338.7	.1
.0051	340.5	.1
.0058	342.6	.1
.006	344.7	.1

System: 1-octanol + aminophylline; phases: Liquid, Crystal
Fixed: Pressure, kPa = 101.3
Property: Solid-liquid equilibrium temperature, K (Liquid); method: Visual observation
Mole fraction of aminophylline	Solid-liquid equilibrium temperature, K	uncertainty
.0006	298.1	.1
.0009	302.5	.1
.0011	304.3	.1
.0014	308.2	.1
.0022	314.3	.1
.0025	318.1	.1
.003	321.8	.1
.0034	323.3	.1
.0039	327.2	.1
.0046	329.2	.1
.005	332.1	.1
.0056	335.2	.1

System: (-)-lobeline hydrochloride + water; phases: Liquid, Crystal
Fixed: Pressure, kPa = 101.3
Property: Solid-liquid equilibrium temperature, K (Liquid); method: Visual observation
Mole fraction of (-)-lobeline hydrochloride	Solid-liquid equilibrium temperature, K	uncertainty
.0007	301.6	.1
.0007	304.1	.1
.0008	306.4	.1
.0009	309.7	.1
.001	312	.1
.0011	316	.1
.002	330.2	.1
.0031	332.4	.1
.0066	338.5	.1
.0085	343.8	.1
.0105	346.6	.1
.0144	350.8	.1
.0175	352.5	.1
.023	356.9	.1
.0274	357.6	.1
.032	360.9	.1

System: ethanol + (-)-lobeline hydrochloride; phases: Liquid, Crystal
Fixed: Pressure, kPa = 101.3
Property: Solid-liquid equilibrium temperature, K (Liquid); method: Visual observation
Mole fraction of (-)-lobeline hydrochloride	Solid-liquid equilibrium temperature, K	uncertainty
.0066	298.6	.1
.0074	305.9	.1
.008	314.3	.1
.0085	317.5	.1
.0085	321.3	.1
.0095	324.2	.1
.0101	328.4	.1
.0107	333.5	.1
.0118	341	.1

System: 1-octanol + (-)-lobeline hydrochloride; phases: Liquid, Crystal
Fixed: Pressure, kPa = 101.3
Property: Solid-liquid equilibrium temperature, K (Liquid); method: Visual observation
Mole fraction of (-)-lobeline hydrochloride	Solid-liquid equilibrium temperature, K	uncertainty
.0019	299.1	.1
.0022	306.4	.1
.0025	309.5	.1
.0028	310.9	.1
.0033	317.1	.1
.0037	319.6	.1
.0042	326.9	.1
.0051	338.2	.1
.0071	350.9	.1

System: perphenazine + water; phases: Liquid, Crystal
Fixed: Pressure, kPa = 101.3
Property: Mole fraction of perphenazine (Liquid); method: UV spectrophotometry
Temperature, K	Mole fraction of perphenazine	uncertainty
293.15	.00000362	.0005
298.15	.00000366	.0005
303.15	.00000368	.0005
308.15	.00000379	.0005
310.15	.00000389	.0005
313.15	.00000403	.0005

System: perphenazine + ethanol; phases: Liquid, Crystal
Fixed: Pressure, kPa = 101.3
Property: Solid-liquid equilibrium temperature, K (Liquid); method: Visual observation
Mole fraction of ethanol	Solid-liquid equilibrium temperature, K	uncertainty
.0044	309.43	.1
.0071	317.23	.1
.0081	319.73	.1
.0118	324.36	.1
.0134	325.87	.1
.0155	328.47	.1
.019	331.58	.1
.02	332.83	.1
.0255	336.44	.1
.0284	338.1	.1

System: perphenazine + 1-octanol; phases: Liquid, Crystal
Fixed: Pressure, kPa = 101.3
Property: Solid-liquid equilibrium temperature, K (Liquid); method: Visual observation
Mole fraction of 1-octanol	Solid-liquid equilibrium temperature, K	uncertainty
.0035	315.51	.1
.0051	317.02	.1
.0081	318.67	.1
.0121	322.01	.1
.014	324.15	.1
.0206	328.1	.1
.0227	329.1	.1
.0275	331.77	.1
.0321	333.73	.1
.0355	335.5	.1
.0433	339.42	.1

System: indomethacin + water; phases: Liquid, Crystal
Fixed: Pressure, kPa = 101.3
Property: Mole fraction of indomethacin (Liquid); method: UV spectrophotometry
Temperature, K	Mole fraction of indomethacin	uncertainty
293.15	.0000008346	.0005
298.15	.0000009959	.0005
303.15	.0000011697	.0005
318.15	.0000014555	.0005

System: indomethacin + ethanol; phases: Liquid, Crystal
Fixed: Pressure, kPa = 101.3
Property: Solid-liquid equilibrium temperature, K (Liquid); method: Visual observation
Mole fraction of indomethacin	Solid-liquid equilibrium temperature, K	uncertainty
.0044	309.43	.1
.0071	317.23	.1
.0081	319.73	.1
.0118	324.36	.1
.0134	325.87	.1
.0155	328.47	.1
.019	331.58	.1
.02	332.83	.1
.0255	336.44	.1
.0284	338.1	.1

System: indomethacin + 1-octanol; phases: Liquid, Crystal
Fixed: Pressure, kPa = 101.3
Property: Solid-liquid equilibrium temperature, K (Liquid); method: Visual observation
Mole fraction of indomethacin	Solid-liquid equilibrium temperature, K	uncertainty
.0035	315.51	.1
.0051	317.02	.1
.0081	318.67	.1
.0121	322.01	.1
.014	324.15	.1
.0206	328.1	.1
.0227	329.1	.1
.0275	331.77	.1
.0321	333.73	.1
.0355	335.5	.1
.0433	339.42	.1
