Measured thermophysical data. Osmotic and activity coefficients of two macrocyclic aminals in aqueous solution at 288.15, 293.15, 298.15 and 303.15 K
Source: Fluid Phase Equilib., 2010, 10.1016/j.fluid.2010.03.012
Compound 1: 2,5-hexanediol, dinitrate, C6H12N2O6, purity 99.4%
Compound 2: 1,3,6,8-tetraazatricyclo[4.4.1.1(3,8)]dodecane, C8H16N4
Compound 3: water, H2O, purity 99.9%

System: water + 2,5-hexanediol, dinitrate; phases: Liquid, Crystal
Property: Osmotic coefficient (Liquid); method: Isopiestic method
Temperature, K	Molality, mol/kg of 2,5-hexanediol, dinitrate	Osmotic coefficient	uncertainty
288.15	.2143	.9632	.0005
288.15	.2149	.9607	.0005
288.15	.3013	.9606	.0005
288.15	.3014	.9602	.0005
288.15	.4962	.9738	.0005
288.15	.4965	.9733	.0005
288.15	.5516	.9982	.0005
288.15	.5514	.9987	.0005
288.15	.6953	1.04	.0005
288.15	.6961	1.0391	.0005
288.15	.9108	1.1754	.0005
288.15	.9116	1.1748	.0005
293.15	.199	1.0089	.0005
293.15	.1989	1.0097	.0005
293.15	.335	1.0164	.0005
293.15	.3367	1.0113	.0005
293.15	.4819	1.0312	.0005
293.15	.4823	1.0301	.0005
293.15	.7476	1.0574	.0005
293.15	.7466	1.0577	.0005
293.15	.8434	1.122	.0005
293.15	.8422	1.1237	.0005
293.15	.9748	1.2258	.0005
293.15	.9756	1.2252	.0005
298.15	.2139	1.0434	.0005
298.15	.2143	1.0414	.0005
298.15	.2965	1.0584	.0005
298.15	.2961	1.0598	.0005
298.15	.4724	1.0989	.0005
298.15	.4715	1.101	.0005
298.15	.5182	1.1055	.0005
298.15	.5168	1.1085	.0005
298.15	.6668	1.141	.0005
298.15	.6664	1.1417	.0005
298.15	.8871	1.1941	.0005
298.15	.8869	1.1943	.0005
303.15	.2051	.9865	.0005
303.15	.2058	.9861	.0005
303.15	.3101	1.0253	.0005
303.15	.3095	1.026	.0005
303.15	.4665	1.082	.0005
303.15	.4651	1.0829	.0005
303.15	.6262	1.1485	.0005
303.15	.627	1.1477	.0005
303.15	.7326	1.1733	.0005
303.15	.7321	1.1739	.0005
303.15	1.0218	1.2548	.0005
303.15	1.0204	1.2553	.0005

System: 1,3,6,8-tetraazatricyclo[4.4.1.1(3,8)]dodecane + water; phases: Liquid, Crystal
Property: Osmotic coefficient (Liquid); method: Isopiestic method
Temperature, K	Molality, mol/kg of 1,3,6,8-tetraazatricyclo[4.4.1.1(3,8)]dodecane	Osmotic coefficient	uncertainty
288.15	.2154	.9583	.0005
288.15	.2149	.9605	.0005
288.15	.3041	.9518	.0005
288.15	.3036	.9533	.0005
288.15	.5049	.9571	.0005
288.15	.5066	.9563	.0005
288.15	.604	.9816	.0005
288.15	.603	.9824	.0005
288.15	.7629	1.0165	.0005
288.15	.7638	1.0151	.0005
288.15	1.0106	1.0963	.0005
288.15	1.011	1.096	.0005
293.15	.2023	.991	.0005
293.15	.2031	.9887	.0005
293.15	.3458	.9907	.0005
293.15	.3454	.9917	.0005
293.15	.5003	.993	.0005
293.15	.5009	.9919	.0005
293.15	.7613	1.0353	.0005
293.15	.7629	1.0332	.0005
293.15	.9108	1.0552	.0005
293.15	.9099	1.056	.0005
293.15	1.0689	1.1181	.0005
293.15	1.0678	1.1192	.0005
298.15	.2205	1.0121	.0005
298.15	.2201	1.014	.0005
298.15	.3086	1.0168	.0005
298.15	.3087	1.0165	.0005
298.15	.5052	1.0275	.0005
298.15	.5055	1.0269	.0005
298.15	.562	1.0321	.0005
298.15	.5624	1.0317	.0005
298.15	.7125	1.0449	.0005
298.15	.7125	1.0449	.0005
298.15	.9867	1.0735	.0005
298.15	.9849	1.0755	.0005
303.15	.2074	.972	.0005
303.15	.2079	.9707	.0005
303.15	.3266	.9871	.0005
303.15	.3271	.9863	.0005
303.15	.5029	1.0139	.0005
303.15	.5022	1.0147	.0005
303.15	.6868	1.0338	.0005
303.15	.6864	1.0329	.0005
303.15	.7946	1.0573	.0005
303.15	.7955	1.0567	.0005
303.15	1.028	1.1031	.0005
303.15	1.0288	1.102	.0005
