Measured thermophysical data. Bubble point measurements of binary mixtures formed by 1-hexanol with selected nitro-compounds and substituted benzenes at 95.6 kPa
Source: Fluid Phase Equilib., 2010, 10.1016/j.fluid.2010.08.010
Compound 1: 1-hexanol, C6H14O, purity 98%
Compound 2: acetonitrile, C2H3N, purity 98%
Compound 3: propenenitrile, C3H3N, purity 98%
Compound 4: dimethylformamide, C3H7NO, purity 98%
Compound 5: aniline, C6H7N, purity 98%
Compound 6: chlorobenzene, C6H5Cl, purity 98%
Compound 7: nitrobenzene, C6H5NO2, purity 98%
Compound 8: 1,2-dimethylbenzene, C8H10, purity 98%

System: 1-hexanol; phases: Liquid
Fixed: Pressure, kPa = 101.325
Property: Mass density, kg/m3 (Liquid); method: Pycnometric method
Temperature, K	Mass density, kg/m3	uncertainty
298.15	815.3	.5

System: acetonitrile; phases: Liquid
Fixed: Pressure, kPa = 101.325
Property: Mass density, kg/m3 (Liquid); method: Pycnometric method
Temperature, K	Mass density, kg/m3	uncertainty
298.15	776.5	.5

System: propenenitrile; phases: Liquid
Fixed: Pressure, kPa = 101.325
Property: Mass density, kg/m3 (Liquid); method: Pycnometric method
Temperature, K	Mass density, kg/m3	uncertainty
298.15	800.3	.5

System: dimethylformamide; phases: Liquid
Fixed: Pressure, kPa = 101.325
Property: Mass density, kg/m3 (Liquid); method: Pycnometric method
Temperature, K	Mass density, kg/m3	uncertainty
293.15	948.7	.5

System: aniline; phases: Liquid
Fixed: Pressure, kPa = 101.325
Property: Mass density, kg/m3 (Liquid); method: Pycnometric method
Temperature, K	Mass density, kg/m3	uncertainty
298.15	1017.3	.5

System: chlorobenzene; phases: Liquid
Fixed: Pressure, kPa = 101.325
Property: Mass density, kg/m3 (Liquid); method: Pycnometric method
Temperature, K	Mass density, kg/m3	uncertainty
293.15	1106	.5

System: nitrobenzene; phases: Liquid
Fixed: Pressure, kPa = 101.325
Property: Mass density, kg/m3 (Liquid); method: Pycnometric method
Temperature, K	Mass density, kg/m3	uncertainty
298.15	1198	.5

System: 1,2-dimethylbenzene; phases: Liquid
Fixed: Pressure, kPa = 101.325
Property: Mass density, kg/m3 (Liquid); method: Pycnometric method
Temperature, K	Mass density, kg/m3	uncertainty
298.15	875.9	.5

System: acetonitrile + 1-hexanol; phases: Liquid, Gas
Fixed: Pressure, kPa = 95.6
Property: Boiling temperature at pressure P, K (Liquid); method: Ebulliometric method (Recirculating still)
Mole fraction of acetonitrile	Boiling temperature at pressure P, K	uncertainty
0	428.45	.05
.0846	376.35	.05
.1877	369.95	.05
.2502	368.25	.05
.2938	367.35	.05
.3563	366.05	.05
.4282	364.75	.05
.4907	363.55	.05
.5552	362.15	.05
.6177	361.15	.05
.7892	357.75	.05
.8517	356.15	.05
.9142	354.65	.05
.9767	353.15	.05
1	352.55	.05

System: acetonitrile + 1-hexanol; phases: Gas, Liquid
Property: Mole fraction of acetonitrile (Gas); method: Chromatography
Mole fraction of acetonitrile	Temperature, K	Mole fraction of acetonitrile	uncertainty
0	428.45	0	.001
.0846	376.35	.8718	.001
.1877	369.95	.9071	.001
.2502	368.25	.9156	.001
.2938	367.35	.9293	.001
.3563	366.05	.9264	.001
.4282	364.75	.933	.001
.4907	363.55	.9388	.001
.5552	362.15	.9449	.001
.6177	361.15	.9512	.001
.7892	357.75	.9703	.001
.8517	356.15	.9783	.001
.9142	354.65	.9869	.001
.9767	353.15	.9963	.001
1	352.55	1	.001

System: propenenitrile + 1-hexanol; phases: Liquid, Gas
Fixed: Pressure, kPa = 95.6
Property: Boiling temperature at pressure P, K (Liquid); method: Ebulliometric method (Recirculating still)
Mole fraction of propenenitrile	Boiling temperature at pressure P, K	uncertainty
0	428.45	.05
.0625	406.45	.05
.125	396.45	.05
.1746	391.35	.05
.2974	381.45	.05
.3599	377.35	.05
.4585	371.45	.05
.5595	366.15	.05
.622	363.05	.05
.6819	360.45	.05
.7444	357.75	.05
.8109	355.35	.05
.8734	352.35	.05
.9449	350.55	.05
1	348.95	.05

System: propenenitrile + 1-hexanol; phases: Gas, Liquid
Property: Mole fraction of propenenitrile (Gas); method: Chromatography
Mole fraction of propenenitrile	Temperature, K	Mole fraction of propenenitrile	uncertainty
0	428.45	0	.001
.0625	406.45	.5616	.001
.125	396.45	.7126	.001
.1746	391.35	.7759	.001
.2974	381.45	.8672	.001
.3599	377.35	.897	.001
.4585	371.45	.9313	.001
.5595	366.15	.9555	.001
.622	363.05	.9667	.001
.6819	360.45	.9752	.001
.7444	357.75	.9825	.001
.8109	355.35	.9886	.001
.8734	352.35	.9932	.001
.9449	350.55	.9974	.001
1	348.95	1	.001

System: dimethylformamide + 1-hexanol; phases: Liquid, Gas
Fixed: Pressure, kPa = 95.6
Property: Boiling temperature at pressure P, K (Liquid); method: Ebulliometric method (Recirculating still)
Mole fraction of dimethylformamide	Boiling temperature at pressure P, K	uncertainty
0	428.45	.05
.0625	427.65	.05
.1528	426.55	.05
.2651	425.45	.05
.3276	424.95	.05
.4191	423.75	.05
.4816	423.45	.05
.5198	423.05	.05
.5823	422.75	.05
.6448	423.05	.05
.7089	422.75	.05
.7714	422.05	.05
.8297	421.75	.05
.8922	421.55	.05
.936	421.34	.05
1	421.05	.05

System: dimethylformamide + 1-hexanol; phases: Gas, Liquid
Property: Mole fraction of dimethylformamide (Gas); method: Chromatography
Mole fraction of dimethylformamide	Temperature, K	Mole fraction of dimethylformamide	uncertainty
0	428.45	0	.001
.0625	427.65	.0874	.001
.1528	426.55	.2005	.001
.2651	425.45	.3254	.001
.3276	424.95	.3897	.001
.4191	423.75	.479	.001
.4816	423.45	.5376	.001
.5198	423.05	.5727	.001
.5823	422.75	.6293	.001
.6448	423.05	.6851	.001
.7089	422.75	.7418	.001
.7714	422.05	.7979	.001
.8297	421.75	.8483	.001
.8922	421.55	.9036	.001
.936	421.34	.9426	.001
1	421.05	1	.001

System: aniline + 1-hexanol; phases: Liquid, Gas
Fixed: Pressure, kPa = 95.6
Property: Boiling temperature at pressure P, K (Liquid); method: Ebulliometric method (Recirculating still)
Mole fraction of 1-hexanol	Boiling temperature at pressure P, K	uncertainty
0	455.25	.05
.0746	451.95	.05
.195	447.25	.05
.2574	445.05	.05
.3264	442.75	.05
.3889	440.85	.05
.4468	439.25	.05
.5093	437.55	.05
.5655	436.15	.05
.628	434.65	.05
.6845	433.65	.05
.747	432.25	.05
.8668	430.15	.05
.9293	429.35	.05
1	428.45	.05

System: aniline + 1-hexanol; phases: Gas, Liquid
Property: Mole fraction of 1-hexanol (Gas); method: Chromatography
Mole fraction of 1-hexanol	Temperature, K	Mole fraction of 1-hexanol	uncertainty
0	455.25	0	.001
.0746	451.95	.1534	.001
.195	447.25	.3537	.001
.2574	445.05	.4402	.001
.3264	442.75	.5247	.001
.3889	440.85	.5928	.001
.4468	439.25	.6496	.001
.5093	437.55	.705	.001
.5655	436.15	.7499	.001
.628	434.65	.7951	.001
.6845	433.65	.832	.001
.747	432.25	.869	.001
.8668	430.15	.9309	.001
.9293	429.35	.961	.001
1	428.45	1	.001

System: chlorobenzene + 1-hexanol; phases: Liquid, Gas
Fixed: Pressure, kPa = 95.6
Property: Boiling temperature at pressure P, K (Liquid); method: Ebulliometric method (Recirculating still)
Mole fraction of chlorobenzene	Boiling temperature at pressure P, K	uncertainty
0	428.45	.05
.0625	425.35	.05
.1204	422.75	.05
.1829	420.25	.05
.2912	416.65	.05
.3537	414.85	.05
.4065	413.55	.05
.469	412.05	.05
.5228	410.85	.05
.5853	409.45	.05
.649	408.45	.05
.7115	407.35	.05
.7871	406.05	.05
.8496	405.05	.05
.9171	404.05	.05
1	402.85	.05

System: chlorobenzene + 1-hexanol; phases: Gas, Liquid
Property: Mole fraction of chlorobenzene (Gas); method: Chromatography
Mole fraction of chlorobenzene	Temperature, K	Mole fraction of chlorobenzene	uncertainty
0	428.45	0	.001
.0625	425.35	.1547	.001
.1204	422.75	.2701	.001
.1829	420.25	.3722	.001
.2912	416.65	.5102	.001
.3537	414.85	.5741	.001
.4065	413.55	.6216	.001
.469	412.05	.672	.001
.5228	410.85	.7114	.001
.5853	409.45	.7537	.001
.649	408.45	.7939	.001
.7115	407.35	.8314	.001
.7871	406.05	.8753	.001
.8496	405.05	.9112	.001
.9171	404.05	.9503	.001
1	402.85	1	.001

System: nitrobenzene + 1-hexanol; phases: Liquid, Gas
Fixed: Pressure, kPa = 95.6
Property: Boiling temperature at pressure P, K (Liquid); method: Ebulliometric method (Recirculating still)
Mole fraction of 1-hexanol	Boiling temperature at pressure P, K	uncertainty
0	481.45	.05
.0625	474.25	.05
.1192	468.75	.05
.1817	465.55	.05
.2889	456.15	.05
.3514	452.45	.05
.4037	449.75	.05
.4662	446.65	.05
.52	444.45	.05
.5825	441.65	.05
.6464	439.15	.05
.709	436.95	.05
.7852	434.45	.05
.8477	432.45	.05
.9164	430.65	.05
1	428.45	.05

System: nitrobenzene + 1-hexanol; phases: Gas, Liquid
Property: Mole fraction of 1-hexanol (Gas); method: Chromatography
Mole fraction of 1-hexanol	Temperature, K	Mole fraction of 1-hexanol	uncertainty
0	481.45	0	.001
.0625	474.25	.2139	.001
.1192	468.75	.3569	.001
.1817	465.55	.4782	.001
.2889	456.15	.6296	.001
.3514	452.45	.6959	.001
.4037	449.75	.7425	.001
.4662	446.65	.79	.001
.52	444.45	.825	.001
.5825	441.65	.8602	.001
.6464	439.15	.891	.001
.709	436.95	.9171	.001
.7852	434.45	.9442	.001
.8477	432.45	.9632	.001
.9164	430.65	.9814	.001
1	428.45	1	.001

System: 1,2-dimethylbenzene + 1-hexanol; phases: Liquid, Gas
Fixed: Pressure, kPa = 95.6
Property: Boiling temperature at pressure P, K (Liquid); method: Ebulliometric method (Recirculating still)
Mole fraction of 1,2-dimethylbenzene	Boiling temperature at pressure P, K	uncertainty
0	428.45	.05
.0625	427.45	.05
.1035	426.75	.05
.18	425.45	.05
.2597	424.15	.05
.3192	423.15	.05
.3654	422.45	.05
.4279	421.45	.05
.4795	420.65	.05
.556	419.55	.05
.65	418.35	.05
.7111	417.65	.05
.8233	416.55	.05
.8858	416.05	.05
.935	415.75	.05
1	415.45	.05

System: 1,2-dimethylbenzene + 1-hexanol; phases: Gas, Liquid
Property: Mole fraction of 1,2-dimethylbenzene (Gas); method: Chromatography
Mole fraction of 1,2-dimethylbenzene	Temperature, K	Mole fraction of 1,2-dimethylbenzene	uncertainty
0	428.45	0	.001
.0625	427.45	.0948	.001
.1035	426.75	.154	.001
.18	425.45	.2583	.001
.2597	424.15	.3585	.001
.3192	423.15	.4279	.001
.3654	422.45	.4787	.001
.4279	421.45	.5434	.001
.4795	420.65	.5934	.001
.556	419.55	.6623	.001
.65	418.35	.7392	.001
.7111	417.65	.7854	.001
.8233	416.55	.865	.001
.8858	416.05	.9087	.001
.935	415.75	.9449	.001
1	415.45	1	.001
