Measured thermophysical data. Correlation of solubility and calculation of thermodynamic properties of guanidine nitrate in different solvents
Source: Fluid Phase Equilib., 2015, 10.1016/j.fluid.2014.12.037
Compound 1: guanidine nitrate, CH6N4O3
Compound 2: methanol, CH4O, purity 99%
Compound 3: ethanol, C2H6O, purity 99%
Compound 4: n-propanol, C3H8O, purity 99%
Compound 5: acetone, C3H6O, purity 99%
Compound 6: water, H2O

System: guanidine nitrate; phases: Crystal, Liquid, Air at 1 atmosphere
Property: Normal melting temperature, K (Crystal); method: DSC/DTA
Normal melting temperature, K	uncertainty
487.17	1

System: guanidine nitrate; phases: Crystal, Liquid, Air at 1 atmosphere
Property: Molar enthalpy of transition or fusion, kJ/mol (Crystal); method: DSC
Molar enthalpy of transition or fusion, kJ/mol	uncertainty
25.27	.16

System: guanidine nitrate + water; phases: Liquid, Crystal
Fixed: Pressure, kPa = 100
Property: Mole fraction of guanidine nitrate (Liquid); method: gravimetric
Temperature, K	Mole fraction of guanidine nitrate	uncertainty
278.25	.009	.0000005
283.35	.0112	.0000005
288.25	.0136	.0000005
292.95	.0157	.0000005
298.25	.019	.0000005
303.15	.0222	.0000005
308.35	.0262	.0000005
313.05	.0302	.0000005
318.25	.0349	.0000005
323.25	.0401	.0000005
328.35	.0463	.0000005
332.85	.0511	.0000005

System: methanol + guanidine nitrate; phases: Liquid, Crystal
Fixed: Pressure, kPa = 100
Property: Mole fraction of guanidine nitrate (Liquid); method: gravimetric
Temperature, K	Mole fraction of guanidine nitrate	uncertainty
278.25	.0063	.0000005
283.25	.0075	.0000005
288.25	.0092	.0000005
293.25	.0107	.0000005
298.35	.0126	.0000005
303.15	.0148	.0000005
308.35	.0174	.0000005
313.15	.0198	.0000005
318.25	.0227	.0000005
323.35	.0264	.0000005
328.05	.0305	.0000005

System: ethanol + guanidine nitrate; phases: Liquid, Crystal
Fixed: Pressure, kPa = 100
Property: Mole fraction of guanidine nitrate (Liquid); method: gravimetric
Temperature, K	Mole fraction of guanidine nitrate	uncertainty
278.05	.003	.0000005
283.15	.0037	.0000005
288.35	.0043	.0000005
293.15	.0051	.0000005
298.25	.0062	.0000005
303.25	.007	.0000005
308.25	.0081	.0000005
313.05	.0094	.0000005
318.05	.0108	.0000005
323.25	.0124	.0000005
328.35	.0143	.0000005

System: n-propanol + guanidine nitrate; phases: Liquid, Crystal
Fixed: Pressure, kPa = 101
Property: Mole fraction of guanidine nitrate (Liquid); method: gravimetric
Temperature, K	Mole fraction of guanidine nitrate	uncertainty
278.2	.0009	.0000005
283.2	.0013	.0000005
288.2	.0017	.0000005
293.1	.002	.0000005
298.3	.0029	.0000005
303.1	.0041	.0000005
308.3	.0048	.0000005
313.1	.0061	.0000005
318.2	.0077	.0000005
323.1	.0092	.0000005
328	.012	.0000005

System: acetone + guanidine nitrate; phases: Liquid, Crystal
Fixed: Pressure, kPa = 100
Property: Mole fraction of guanidine nitrate (Liquid); method: gravimetric
Temperature, K	Mole fraction of guanidine nitrate	uncertainty
278.15	.0003	.0000005
283.15	.0005	.0000005
288.15	.0009	.0000005
293.15	.0016	.0000005
298.15	.0029	.0000005
303.15	.0052	.0000005
308.15	.0092	.0000005
313.15	.0158	.0000005
323.15	.0503	.0000005
