Measured thermophysical data. Vapor liquid equilibria of {n-heptane + toluene + [emim][DCA]} system by headspace gas chromatography
Source: Fluid Phase Equilib., 2015, 10.1016/j.fluid.2014.12.025
Compound 1: 1-ethyl-3-methylimidazolium dicyanamide, C8H11N5, purity 98%
Compound 2: n-heptane, C7H16, purity 99.7%
Compound 3: toluene, C7H8, purity 99.5%

System: n-heptane + 1-ethyl-3-methylimidazolium dicyanamide; phases: Gas, Liquid
Property: Vapor or sublimation pressure, kPa (Gas); method: Closed cell (Static) method
Temperature, K	Mole fraction of n-heptane	Vapor or sublimation pressure, kPa	uncertainty
323.2	.0007	1.2	.1
323.2	.0011	1.8	.1
323.2	.0021	3.7	.1
323.2	.0055	7.9	.1
323.2	.0076	11.6	.1
323.2	.0128	15	.1
323.2	.0254	18	.1
323.2	.051	18.4	.1
323.2	.1291	18.7	.1
323.2	.2777	18.8	.1
323.2	.6199	18.9	.1
343.2	.0002	.9	.1
343.2	.0003	1.5	.1
343.2	.0006	3.1	.1
343.2	.0013	6	.1
343.2	.0036	12.5	.1
343.2	.006	27.8	.1
343.2	.0157	36.2	.1
343.2	.046	38.2	.1
343.2	.1205	40	.1
343.2	.274	39.9	.1
343.2	.6219	40.7	.1
363.2	.0001	.5	.1
363.2	.0004	1.6	.1
363.2	.0006	2.9	.1
363.2	.0015	6.3	.1
363.2	.0036	12.2	.1
363.2	.005	27.4	.1
363.2	.0063	41.5	.1
363.2	.015	67.6	.1
363.2	.0913	73.9	.1
363.2	.2459	76.2	.1
363.2	.6055	78.9	.1

System: toluene + 1-ethyl-3-methylimidazolium dicyanamide; phases: Gas, Liquid
Property: Vapor or sublimation pressure, kPa (Gas); method: Closed cell (Static) method
Temperature, K	Mole fraction of toluene	Vapor or sublimation pressure, kPa	uncertainty
323.2	.0092	.4	.1
323.2	.035	1.7	.1
323.2	.0664	3.2	.1
323.2	.1204	5.9	.1
323.2	.1616	8	.1
323.2	.236	10.2	.1
323.2	.3796	11.4	.1
323.2	.4405	11.6	.1
323.2	.552	11.9	.1
323.2	.65	12	.1
323.2	.7367	12.2	.1
343.2	.0087	.9	.1
343.2	.0332	3.5	.1
343.2	.0487	5.1	.1
343.2	.1291	13	.1
343.2	.1555	15.5	.1
343.2	.228	21.2	.1
343.2	.372	24.9	.1
343.2	.4336	25.3	.1
343.2	.5466	25.9	.1
343.2	.6457	26.9	.1
343.2	.7336	27.1	.1
363.2	.0074	1.4	.1
363.2	.0304	6.1	.1
363.2	.0458	9.1	.1
363.2	.1198	24.6	.1
363.2	.1475	29.7	.1
363.2	.2162	40.9	.1
363.2	.3551	49.1	.1
363.2	.4177	50.4	.1
363.2	.5343	53.5	.1
363.2	.6357	53.1	.1
363.2	.7283	53.4	.1

System: toluene + n-heptane + 1-ethyl-3-methylimidazolium dicyanamide; phases: Gas, Liquid
Property: Mole fraction of n-heptane (Gas); method: Chromatography
Temperature, K	Mole fraction of 1-ethyl-3-methylimidazolium dicyanamide	Solvent: Mole fraction of n-heptane	Mole fraction of n-heptane	uncertainty
323.2	.9844	.039	.69	.00005
323.2	.9863	.0234	.5918	.00005
323.2	.9851	.0209	.5445	.00005
323.2	.9848	.0191	.5297	.00005
323.2	.9836	.0165	.4806	.00005
323.2	.9836	.014	.4506	.00005
323.2	.9829	.0123	.3884	.00005
323.2	.9838	.0093	.3339	.00005
323.2	.9827	.0075	.2649	.00005
323.2	.9834	.0048	.1977	.00005
323.2	.9826	.0023	.1074	.00005
323.2	.9821	.0008	.0535	.00005
323.2	.9817	.0003	.0258	.00005
323.2	.9242	.0233	.5193	.00005
323.2	.9235	.0191	.4844	.00005
323.2	.9213	.0171	.4428	.00005
323.2	.9192	.0142	.3967	.00005
323.2	.9191	.0111	.3369	.00005
323.2	.9184	.0082	.2681	.00005
323.2	.9167	.005	.2064	.00005
323.2	.9171	.0023	.112	.00005
323.2	.9176	.001	.0542	.00005
323.2	.9188	.0004	.0259	.00005
323.2	.8445	.0121	.3444	.00005
323.2	.8438	.0091	.279	.00005
323.2	.8449	.0056	.2097	.00005
323.2	.8408	.0027	.1163	.00005
323.2	.8379	.0011	.057	.00005
323.2	.8409	.0004	.0264	.00005
323.2	.7695	.0065	.2128	.00005
323.2	.768	.0031	.1202	.00005
323.2	.7735	.0012	.057	.00005
323.2	.7684	.0005	.0277	.00005
343.2	.9881	.0336	.5614	.00005
343.2	.9862	.0196	.4549	.00005
343.2	.986	.0171	.4239	.00005
343.2	.9856	.0153	.3897	.00005
343.2	.9856	.0125	.3517	.00005
343.2	.9864	.0117	.3194	.00005
343.2	.9847	.0098	.2853	.00005
343.2	.9845	.0077	.2272	.00005
343.2	.9844	.0064	.1856	.00005
343.2	.9839	.0037	.1287	.00005
343.2	.9824	.0017	.0601	.00005
343.2	.9845	.0006	.0344	.00005
343.2	.9819	.0003	.017	.00005
343.2	.9255	.0177	.3973	.00005
343.2	.9239	.0148	.3591	.00005
343.2	.9233	.0129	.328	.00005
343.2	.9227	.011	.2863	.00005
343.2	.9214	.0085	.234	.00005
343.2	.9202	.0065	.1915	.00005
343.2	.9191	.0042	.1341	.00005
343.2	.917	.0012	.0667	.00005
343.2	.9188	.0006	.037	.00005
343.2	.9182	.0002	.018	.00005
343.2	.8613	.0091	.2254	.00005
343.2	.8435	.0072	.1961	.00005
343.2	.8464	.0046	.1358	.00005
343.2	.8424	.0013	.07	.00005
343.2	.8416	.0008	.038	.00005
343.2	.8406	.0003	.0185	.00005
343.2	.7756	.0048	.1408	.00005
343.2	.775	.0017	.0692	.00005
343.2	.771	.0009	.0391	.00005
343.2	.7737	.0003	.0193	.00005
363.2	.9877	.0325	.4337	.00005
363.2	.9854	.0212	.351	.00005
363.2	.9864	.0184	.3231	.00005
363.2	.9866	.0164	.2924	.00005
363.2	.9859	.0134	.2619	.00005
363.2	.9867	.0113	.2252	.00005
363.2	.9852	.0094	.2084	.00005
363.2	.9847	.0072	.1672	.00005
363.2	.9862	.0051	.1271	.00005
363.2	.9847	.0033	.0911	.00005
363.2	.9839	.0012	.0437	.00005
363.2	.9873	.0008	.0199	.00005
363.2	.9837	0	.0113	.00005
363.2	.9307	.0195	.2822	.00005
363.2	.9341	.0161	.2411	.00005
363.2	.9334	.014	.2182	.00005
363.2	.9282	.0114	.1988	.00005
363.2	.9303	.0087	.1554	.00005
363.2	.9281	.0065	.1283	.00005
363.2	.9275	.0043	.0869	.00005
363.2	.9268	.0014	.0413	.00005
363.2	.9336	.0006	.021	.00005
363.2	.9274	.0003	.0107	.00005
363.2	.8541	.011	.1526	.00005
363.2	.8639	.0079	.1187	.00005
363.2	.8584	.0049	.0827	.00005
363.2	.8586	.0018	.0379	.00005
363.2	.8579	.0008	.0217	.00005
363.2	.8549	.0003	.0104	.00005
363.2	.79	.0061	.0874	.00005
363.2	.7894	.0027	.0411	.00005
363.2	.7852	.0011	.0246	.00005
363.2	.7841	.0003	.0127	.00005

System: toluene + n-heptane; phases: Gas, Liquid
Property: Mole fraction of n-heptane (Gas); method: Chromatography
Temperature, K	Mole fraction of n-heptane	Mole fraction of n-heptane	uncertainty
323.2	.167	.2822	.00005
323.2	.3716	.4922	.00005
323.2	.5716	.6559	.00005
323.2	.7809	.8181	.00005
343.2	.1889	.3099	.00005
343.2	.3811	.4893	.00005
343.2	.5733	.655	.00005
343.2	.7882	.828	.00005
363.2	.1862	.2928	.00005
363.2	.3779	.4777	.00005
363.2	.5704	.6491	.00005
363.2	.7874	.8142	.00005

System: toluene + n-heptane; phases: Gas, Liquid
Property: Vapor or sublimation pressure, kPa (Gas); method: Closed cell (Static) method
Temperature, K	Mole fraction of n-heptane	Vapor or sublimation pressure, kPa	uncertainty
323.2	.167	14.6	.1
323.2	.3716	16.3	.1
323.2	.5716	17.3	.1
323.2	.7809	18.1	.1
343.2	.1889	31.8	.1
343.2	.3811	34.8	.1
343.2	.5733	37.1	.1
343.2	.7882	38.7	.1
363.2	.1862	63.7	.1
363.2	.3779	69.4	.1
363.2	.5704	73	.1
363.2	.7874	75	.1
