Measured thermophysical data. Isobaric vapor-liquid equilibria of the binary mixtures propylene glycol methyl ether + propylene glycol methyl ether acetate, methyl acetate + propylene glycol methyl ether and methanol + propylene glycol methyl ether acetate at 101.3 kPa
Source: Fluid Phase Equilib., 2014, 10.1016/j.fluid.2014.01.022
Compound 1: 1-methoxy-2-propanol, C4H10O2, purity 99.9%
Compound 2: 1-methoxy-2-propyl acetate, C6H12O3, purity 99.85%
Compound 3: methanol, CH4O, purity 99.8%
Compound 4: methyl acetate, C3H6O2, purity 99.86%
Compound 5: isopropanol, C3H8O, purity 99.68%

System: 1-methoxy-2-propanol; phases: Liquid, Gas
Property: Normal boiling temperature, K (Liquid); method: Ebulliometric method (Recirculating still)
Normal boiling temperature, K	uncertainty
393.3	.1

System: 1-methoxy-2-propanol; phases: Liquid
Fixed: Pressure, kPa = 101.325
Property: Mass density, kg/m3 (Liquid); method: Vibrating tube method
Temperature, K	Mass density, kg/m3	uncertainty
298.15	916.5	.1

System: 1-methoxy-2-propanol; phases: Liquid
Property: Refractive index (Na D-line) (Liquid); method: Standard Abbe refractometry
Temperature, K	Pressure, kPa	Refractive index (Na D-line)	uncertainty
298.15	101.3	1.4024	.0001

System: 1-methoxy-2-propyl acetate; phases: Liquid, Gas
Property: Normal boiling temperature, K (Liquid); method: Ebulliometric method (Recirculating still)
Normal boiling temperature, K	uncertainty
419	.1

System: 1-methoxy-2-propyl acetate; phases: Liquid
Fixed: Pressure, kPa = 101.325
Property: Mass density, kg/m3 (Liquid); method: Vibrating tube method
Temperature, K	Mass density, kg/m3	uncertainty
298.15	963	.1

System: 1-methoxy-2-propyl acetate; phases: Liquid
Property: Refractive index (Na D-line) (Liquid); method: Standard Abbe refractometry
Temperature, K	Pressure, kPa	Refractive index (Na D-line)	uncertainty
298.15	101.3	1.4	.0001

System: methanol; phases: Liquid, Gas
Property: Normal boiling temperature, K (Liquid); method: Ebulliometric method (Recirculating still)
Normal boiling temperature, K	uncertainty
337.7	.1

System: methanol; phases: Liquid
Fixed: Pressure, kPa = 101.325
Property: Mass density, kg/m3 (Liquid); method: Vibrating tube method
Temperature, K	Mass density, kg/m3	uncertainty
298.15	786.9	.1

System: methanol; phases: Liquid
Property: Refractive index (Na D-line) (Liquid); method: Standard Abbe refractometry
Temperature, K	Pressure, kPa	Refractive index (Na D-line)	uncertainty
298.15	101.3	1.3269	.0001

System: methyl acetate; phases: Liquid, Gas
Property: Normal boiling temperature, K (Liquid); method: Ebulliometric method (Recirculating still)
Normal boiling temperature, K	uncertainty
330.4	.1

System: methyl acetate; phases: Liquid
Fixed: Pressure, kPa = 101.325
Property: Mass density, kg/m3 (Liquid); method: Vibrating tube method
Temperature, K	Mass density, kg/m3	uncertainty
298.15	927.5	.1

System: methyl acetate; phases: Liquid
Property: Refractive index (Na D-line) (Liquid); method: Standard Abbe refractometry
Temperature, K	Pressure, kPa	Refractive index (Na D-line)	uncertainty
298.15	101.3	1.3596	.0001

System: isopropanol; phases: Liquid, Gas
Property: Normal boiling temperature, K (Liquid); method: Ebulliometric method (Recirculating still)
Normal boiling temperature, K	uncertainty
355.6	.1

System: isopropanol; phases: Liquid
Fixed: Pressure, kPa = 101.325
Property: Mass density, kg/m3 (Liquid); method: Vibrating tube method
Temperature, K	Mass density, kg/m3	uncertainty
298.15	781.4	.1

System: isopropanol; phases: Liquid
Property: Refractive index (Na D-line) (Liquid); method: Standard Abbe refractometry
Temperature, K	Pressure, kPa	Refractive index (Na D-line)	uncertainty
298.15	101.3	1.375	.0001

System: 1-methoxy-2-propanol + 1-methoxy-2-propyl acetate; phases: Gas, Liquid
Property: Mole fraction of 1-methoxy-2-propanol (Gas); method: Chromatography
Temperature, K	Mole fraction of 1-methoxy-2-propanol	Mole fraction of 1-methoxy-2-propanol	uncertainty
393.3	1	1	.0005
394.4	.931	.9637	.0005
395.6	.8544	.923	.0005
396.4	.8057	.8963	.0005
397.7	.7206	.847	.0005
400.2	.6136	.7781	.0005
401.4	.5486	.7311	.0005
402.9	.4789	.6751	.0005
404.8	.4108	.6138	.0005
405.9	.3687	.572	.0005
407.9	.2973	.4931	.0005
409.9	.2293	.4068	.0005
411.6	.1836	.3416	.0005
412.5	.1548	.2971	.0005
413.5	.1307	.2576	.0005
415.3	.085	.1764	.0005
416	.0724	.1525	.0005
416.4	.055	.1183	.0005
416.9	.0472	.1024	.0005
417.4	.031	.0686	.0005
418.3	.0113	.0256	.0005
419	0	0	.0005

System: methyl acetate + 1-methoxy-2-propanol; phases: Gas, Liquid
Property: Mole fraction of methyl acetate (Gas); method: Chromatography
Temperature, K	Mole fraction of methyl acetate	Mole fraction of methyl acetate	uncertainty
330.5	1	1	.0005
331	.9909	.9987	.0005
331.5	.9699	.9954	.0005
332.1	.9468	.9923	.0005
332.6	.9244	.9892	.0005
333.4	.89	.9845	.0005
334.1	.8624	.9818	.0005
334.7	.837	.9786	.0005
336.5	.7657	.9687	.0005
337.3	.7343	.9639	.0005
338.4	.6973	.9586	.0005
338.6	.6898	.9572	.0005
339.4	.6653	.9528	.0005
340.8	.6223	.9437	.0005
340.7	.6244	.9444	.0005
343.1	.5596	.9286	.0005
345.1	.5111	.9157	.0005
349.1	.4275	.8851	.0005
351.7	.3803	.8619	.0005
353.9	.3449	.8406	.0005
357.7	.2858	.793	.0005
364.4	.2265	.7213	.0005
368.2	.1728	.6481	.0005
373.6	.1261	.5404	.0005
379.2	.0836	.4128	.0005
380.9	.0717	.3698	.0005
384.1	.0511	.2862	.0005
388.2	.026	.1611	.0005
390.1	.0153	.0991	.0005
392.9	.0004	.0033	.0005
393.3	0	0	.0005

System: methanol + 1-methoxy-2-propyl acetate; phases: Gas, Liquid
Property: Mole fraction of methanol (Gas); method: Chromatography
Temperature, K	Mole fraction of methanol	Mole fraction of methanol	uncertainty
337.7	1	1	.0005
337.9	.9938	.999	.0005
338.3	.9795	.997	.0005
338.8	.9558	.9935	.0005
340.2	.8953	.9867	.0005
341.6	.8263	.9794	.0005
343.7	.7294	.9699	.0005
344.1	.6972	.9672	.0005
345.8	.6411	.9637	.0005
348.1	.5496	.9532	.0005
352.8	.4371	.9395	.0005
357.1	.355	.9163	.0005
360.9	.2909	.8989	.0005
371.6	.1825	.8371	.0005
381	.1171	.7463	.0005
383.3	.1059	.7266	.0005
388.3	.0859	.679	.0005
396.5	.055	.5517	.0005
400	.0433	.4846	.0005
403.7	.033	.4101	.0005
407.1	.0263	.3579	.0005
411.1	.0164	.2625	.0005
412.9	.0119	.2049	.0005
413.8	.01	.1637	.0005
415.1	.0071	.1265	.0005
416.7	.0042	.0923	.0005
417.7	.0019	.0418	.0005
419	0	0	.0005
