Measured thermophysical data. Phase equilibria and excess molar enthalpies study of the binary systems (pyrrole + hydrocarbon, or an alcohol) and modeling
Source: Fluid Phase Equilib., 2014, 10.1016/j.fluid.2013.10.029
Compound 1: pyrrole, C4H5N, purity 99%
Compound 2: benzene, C6H6, purity 99.7%
Compound 3: cyclohexane, C6H12, purity 99.5%
Compound 4: pyridine, C5H5N, purity 99.9%
Compound 5: 1-propanol, C3H8O, purity 99.9%
Compound 6: 1-butanol, C4H10O, purity 99.8%
Compound 7: 1-pentanol, C5H12O, purity 99.5%

System: pyrrole + pyridine; phases: Liquid
Fixed: Pressure, kPa = 101.33
Property: Mass density, kg/m3 (Liquid); method: Vibrating tube method
Temperature, K	Mole fraction of pyrrole	Mass density, kg/m3	uncertainty
298.15	1	965.54	.05
298.15	.9591	965.77	.05
298.15	.9063	966.15	.05
298.15	.8374	966.69	.05
298.15	.7554	967.69	.05
298.15	.682	968.6	.05
298.15	.6168	969.44	.05
298.15	.5426	970.64	.05
298.15	.4409	972.25	.05
298.15	.3704	973.5	.05
298.15	.3021	974.44	.05
298.15	.2273	975.56	.05
298.15	.1978	975.9	.05
298.15	.1428	976.57	.05
298.15	.1006	977.04	.05
298.15	.0735	977.37	.05
298.15	0	978.01	.05
308.15	1	956.83	.05
308.15	.9591	957.04	.05
308.15	.9063	957.38	.05
308.15	.8374	957.88	.05
308.15	.7554	958.82	.05
308.15	.682	959.68	.05
308.15	.6168	960.46	.05
308.15	.5426	961.59	.05
308.15	.4409	963.08	.05
308.15	.3704	964.22	.05
308.15	.3021	965.06	.05
308.15	.2273	966.03	.05
308.15	.1978	966.3	.05
308.15	.1428	966.85	.05
308.15	.1006	967.22	.05
308.15	.0735	967.47	.05
308.15	0	967.91	.05
318.15	1	948.03	.05
318.15	.9591	948.21	.05
318.15	.9063	948.53	.05
318.15	.8374	948.98	.05
318.15	.7554	949.87	.05
318.15	.682	950.68	.05
318.15	.6168	951.41	.05
318.15	.5426	952.47	.05
318.15	.4409	953.85	.05
318.15	.3704	954.89	.05
318.15	.3021	955.63	.05
318.15	.2273	956.45	.05
318.15	.1978	956.66	.05
318.15	.1428	957.07	.05
318.15	.1006	957.34	.05
318.15	.0735	957.53	.05
318.15	0	957.76	.05
328.15	1	939.14	.05
328.15	.9591	939.3	.05
328.15	.9063	939.58	.05
328.15	.8374	939.99	.05
328.15	.7554	940.85	.05
328.15	.682	941.6	.05
328.15	.6168	942.28	.05
328.15	.5426	943.27	.05
328.15	.4409	944.54	.05
328.15	.3704	945.49	.05
328.15	.3021	946.12	.05
328.15	.2273	946.8	.05
328.15	.1978	946.95	.05
328.15	.1428	947.23	.05
328.15	.1006	947.41	.05
328.15	.0735	947.53	.05
328.15	0	947.56	.05
338.15	1	930.13	.05
338.15	.9591	930.28	.05
338.15	.9063	930.54	.05
338.15	.8374	930.91	.05
338.15	.7554	931.72	.05
338.15	.682	932.43	.05
338.15	.6168	933.06	.05
338.15	.5426	933.99	.05
338.15	.4409	935.14	.05
338.15	.3704	936.01	.05
338.15	.3021	936.52	.05
338.15	.2273	937.07	.05
338.15	.1978	937.15	.05
338.15	.1428	937.32	.05
338.15	.1006	937.4	.05
338.15	.0735	937.46	.05
338.15	0	937.3	.05

System: pyrrole + pyridine; phases: Liquid, Gas
Property: Vapor or sublimation pressure, kPa (Liquid); method: Ebulliometric method (Recirculating still)
Mole fraction of pyrrole	Temperature, K	Vapor or sublimation pressure, kPa	uncertainty
1	353.15	18	1.5
.9354	353.15	17.7	1.5
.903	353.15	17.4	1.5
.8704	353.15	17.3	1.5
.8486	353.15	17.3	1.5
.8197	353.15	17.3	1.5
.786	353.15	17.1	1.5
.7412	353.15	17	1.5
.6845	353.15	16.8	1.5
.6184	353.15	16.9	1.5
.5872	353.15	17	1.5
.5342	353.15	17.2	1.5
.5026	353.15	17.5	1.5
.4686	353.15	17.8	1.5
.3913	353.15	18.9	1.5
.3406	353.15	20.1	1.5
.2984	353.15	21.1	1.5
.2636	353.15	22.2	1.5
.2324	353.15	23.4	1.5
.2126	353.15	24.2	1.5
.1821	353.15	25.3	1.5
.1441	353.15	26.8	1.5
.1145	353.15	28.1	1.5
.0863	353.15	29	1.5
.0567	353.15	30.1	1.5
0	353.15	32.3	1.5
1	363.15	26.8	1.5
.9808	363.15	26.5	1.5
.9337	363.15	26.2	1.5
.9043	363.15	25.9	1.5
.8726	363.15	25.8	1.5
.8475	363.15	25.7	1.5
.8235	363.15	25.6	1.5
.786	363.15	25.5	1.5
.7452	363.15	25.2	1.5
.6751	363.15	25.1	1.5
.6224	363.15	25.1	1.5
.5833	363.15	25.3	1.5
.533	363.15	25.6	1.5
.5026	363.15	25.9	1.5
.4668	363.15	26.4	1.5
.3919	363.15	27.9	1.5
.3348	363.15	29.4	1.5
.2964	363.15	30.8	1.5
.2615	363.15	32.3	1.5
.2339	363.15	33.8	1.5
.212	363.15	34.7	1.5
.1814	363.15	36.3	1.5
.145	363.15	38.2	1.5
.1136	363.15	39.9	1.5
.0863	363.15	41.3	1.5
.0567	363.15	42.8	1.5
0	363.15	45.9	1.5
1	373.15	38.5	1.5
.9724	373.15	38.3	1.5
.934	373.15	38	1.5
.9043	373.15	37.7	1.5
.8738	373.15	37.4	1.5
.8444	373.15	37.2	1.5
.8236	373.15	37.1	1.5
.7826	373.15	36.9	1.5
.7452	373.15	36.5	1.5
.6845	373.15	36.3	1.5
.6231	373.15	36.5	1.5
.58	373.15	36.7	1.5
.5323	373.15	37.1	1.5
.4963	373.15	37.6	1.5
.4618	373.15	38	1.5
.3913	373.15	40.1	1.5
.3345	373.15	42	1.5
.2964	373.15	43.8	1.5
.2608	373.15	45.7	1.5
.2324	373.15	47.6	1.5
.212	373.15	48.9	1.5
.1807	373.15	50.9	1.5
.1441	373.15	53.5	1.5
.1109	373.15	55.9	1.5
.0863	373.15	57.6	1.5
.0567	373.15	59.5	1.5
0	373.15	63.7	1.5

System: pyrrole + pyridine; phases: Liquid
Fixed: Pressure, kPa = 101
Fixed: Temperature, K = 298.15
Property: Excess molar enthalpy (molar enthalpy of mixing), kJ/mol (Liquid); method: isothermal titration calorimeter
Mole fraction of pyrrole	Excess molar enthalpy (molar enthalpy of mixing), kJ/mol	uncertainty
.03	-.1948	-.000974
.06	-.4438	-.002219
.0898	-.685	-.003425
.1197	-.9191	-.0045955
.1497	-1.1459	-.0057295
.1797	-1.3635	-.0068175
.2096	-1.5703	-.0078515
.2395	-1.7662	-.008831
.2695	-1.9483	-.0097415
.2994	-2.1148	-.010574
.3295	-2.2637	-.0113185
.3594	-2.3918	-.011959
.3895	-2.4974	-.012487
.4195	-2.5776	-.012888
.4495	-2.6305	-.0131525
.4795	-2.6546	-.013273
.4832	-2.6636	-.013318
.4902	-2.6639	-.0133195
.5095	-2.649	-.013245
.5202	-2.6469	-.0132345
.5396	-2.6141	-.0130705
.5502	-2.6006	-.013003
.5696	-2.551	-.012755
.5802	-2.5267	-.0126335
.5906	-2.4912	-.012456
.6102	-2.4273	-.0121365
.6402	-2.3051	-.0115255
.6702	-2.163	-.010815
.7002	-2.0038	-.010019
.7302	-1.8301	-.0091505
.7602	-1.6452	-.008226
.7901	-1.4506	-.007253
.8201	-1.2484	-.006242
.8501	-1.0409	-.0052045
.8801	-.8293	-.0041465
.9101	-.6146	-.003073
.9401	-.3986	-.001993
.9701	-.1806	-.000903

System: benzene + pyrrole; phases: Liquid, Gas
Property: Vapor or sublimation pressure, kPa (Liquid); method: Ebulliometric method (Recirculating still)
Mole fraction of pyrrole	Temperature, K	Vapor or sublimation pressure, kPa	uncertainty
1	338.15	9.4	1.5
.9237	338.15	15.1	1.5
.9024	338.15	17.5	1.5
.8386	338.15	22.2	1.5
.7836	338.15	25.7	1.5
.678	338.15	32	1.5
.6208	338.15	35	1.5
.5489	338.15	38.4	1.5
.4828	338.15	41.4	1.5
.4267	338.15	43.8	1.5
.3799	338.15	45.7	1.5
.3319	338.15	47.5	1.5
.2982	338.15	49	1.5
.2356	338.15	51.5	1.5
.1767	338.15	53.8	1.5
.1353	338.15	55.6	1.5
0	338.15	62.1	1.5
1	348.15	14.6	1.5
.9857	348.15	16.3	1.5
.9685	348.15	17.9	1.5
.9485	348.15	20.5	1.5
.9296	348.15	22.5	1.5
.898	348.15	25.9	1.5
.8778	348.15	26.6	1.5
.8328	348.15	32.1	1.5
.7821	348.15	36.8	1.5
.7269	348.15	41.3	1.5
.6735	348.15	45.4	1.5
.6172	348.15	49.6	1.5
.5438	348.15	54.1	1.5
.4713	348.15	58.4	1.5
.4203	348.15	61.4	1.5
.374	348.15	64	1.5
.3298	348.15	66.4	1.5
.2964	348.15	68.3	1.5
.2275	348.15	71.7	1.5
.1738	348.15	74.9	1.5
.1314	348.15	77.3	1.5
0	348.15	86.4	1.5
1	358.15	21.9	1.5
.9832	358.15	24.3	1.5
.9667	358.15	26.6	1.5
.9442	358.15	30.4	1.5
.9328	358.15	32.5	1.5
.8779	358.15	37.8	1.5
.8285	358.15	45.6	1.5
.7761	358.15	51.6	1.5
.7206	358.15	57.3	1.5
.6652	358.15	62.9	1.5
.6062	358.15	68.6	1.5
.5339	358.15	74.5	1.5
.4659	358.15	79.7	1.5
.4152	358.15	83.8	1.5
.3709	358.15	87.3	1.5
.331	358.15	90.2	1.5
.2832	358.15	93.1	1.5

System: benzene + pyrrole; phases: Liquid
Fixed: Pressure, kPa = 101
Fixed: Temperature, K = 298.15
Property: Excess molar enthalpy (molar enthalpy of mixing), kJ/mol (Liquid); method: isothermal titration calorimeter
Mole fraction of pyrrole	Excess molar enthalpy (molar enthalpy of mixing), kJ/mol	uncertainty
.015	.0713	.0003565
.03	.1226	.000613
.0448	.1698	.000849
.0597	.2127	.0010635
.0747	.2528	.001264
.0896	.2893	.0014465
.1045	.3234	.001617
.1193	.3545	.0017725
.1343	.3837	.0019185
.1493	.4106	.002053
.1642	.4352	.002176
.1792	.4581	.0022905
.1942	.4792	.002396
.2092	.4988	.002494
.2242	.5167	.0025835
.2392	.5329	.0026645
.2542	.5471	.0027355
.2691	.5596	.002798
.284	.5707	.0028535
.299	.5805	.0029025
.314	.5893	.0029465
.329	.5968	.002984
.344	.6032	.003016
.359	.6084	.003042
.374	.6125	.0030625
.389	.6156	.003078
.404	.6176	.003088
.419	.6186	.003093
.434	.6186	.003093
.449	.6176	.003088
.464	.6156	.003078
.479	.6127	.0030635
.494	.609	.003045
.5091	.6042	.003021
.5241	.5986	.002993
.5391	.5921	.0029605
.5541	.5848	.002924
.5613	.5844	.002922
.5683	.5814	.002907
.5692	.5765	.0028825
.583	.5744	.002872
.5842	.5674	.002837
.5977	.5666	.002833
.5993	.5575	.0027875
.6122	.5581	.0027905
.6143	.5468	.002734
.6267	.549	.002745
.6411	.5391	.0026955
.6554	.5283	.0026415
.6696	.517	.002585
.6838	.5052	.002526
.6978	.4923	.0024615
.7118	.4786	.002393
.7257	.4643	.0023215
.7395	.4494	.002247
.7533	.4334	.002167
.7669	.4169	.0020845
.7805	.3998	.001999
.794	.382	.00191
.8074	.3632	.001816
.8208	.3441	.0017205
.8341	.324	.00162
.8473	.3037	.0015185
.8604	.2822	.001411
.8735	.2603	.0013015
.8865	.2374	.001187
.8993	.2137	.0010685
.9121	.1893	.0009465
.9249	.1642	.000821
.9377	.1384	.000692
.9502	.1125	.0005625
.9628	.0851	.0004255
.9753	.0578	.000289
.9877	.0292	.000146

System: pyrrole + cyclohexane; phases: Liquid, Gas
Property: Vapor or sublimation pressure, kPa (Liquid); method: Ebulliometric method (Recirculating still)
Mole fraction of pyrrole	Temperature, K	Vapor or sublimation pressure, kPa	uncertainty
1	338.15	9.4	1.5
.9481	338.15	22.7	1.5
.9385	338.15	25.5	1.5
.914	338.15	29.9	1.5
.8957	338.15	33.4	1.5
.8717	338.15	35.5	1.5
.8573	338.15	38.8	1.5
.834	338.15	41.6	1.5
.77	338.15	47.4	1.5
.7613	338.15	47.8	1.5
.7316	338.15	50.4	1.5
.6856	338.15	52.5	1.5
.6083	338.15	55.4	1.5
.5497	338.15	56.6	1.5
.4974	338.15	57.5	1.5
.4242	338.15	58.8	1.5
.344	338.15	59.7	1.5
.2762	338.15	60.3	1.5
.19	338.15	61.2	1.5
0	338.15	61.5	1.5
1	348.15	14.6	1.5
.9462	348.15	31.4	1.5
.9377	348.15	34.2	1.5
.9169	348.15	40	1.5
.8985	348.15	45	1.5
.8794	348.15	48.7	1.5
.8567	348.15	53.2	1.5
.8189	348.15	58.5	1.5
.7853	348.15	63.6	1.5
.7708	348.15	65	1.5
.7287	348.15	68.6	1.5
.663	348.15	71.5	1.5
.6145	348.15	74.7	1.5
.5424	348.15	77.2	1.5
.4954	348.15	78.7	1.5
.4425	348.15	80	1.5
.3372	348.15	82	1.5
.2696	348.15	83.1	1.5
.1861	348.15	84.3	1.5
0	348.15	84.7	1.5
1	358.15	21.9	1.5
.9482	358.15	42.2	1.5
.9371	358.15	46.6	1.5
.9168	358.15	53.9	1.5
.8941	358.15	61	1.5
.8699	358.15	65.9	1.5
.8375	358.15	71.7	1.5
.8162	358.15	78	1.5
.7762	358.15	83.8	1.5
.7574	358.15	86.4	1.5
.7053	358.15	91.6	1.5
.6651	358.15	95.3	1.5
.5981	358.15	99.8	1.5

System: pyrrole + cyclohexane; phases: Liquid
Fixed: Pressure, kPa = 101
Fixed: Temperature, K = 298.15
Property: Excess molar enthalpy (molar enthalpy of mixing), kJ/mol (Liquid); method: isothermal titration calorimeter
Mole fraction of pyrrole	Excess molar enthalpy (molar enthalpy of mixing), kJ/mol	uncertainty
.015	.2344	.001172
.03	.4145	.0020725
.0451	.5479	.0027395
.0601	.65	.00325
.0752	.7315	.0036575
.0905	.8041	.0040205
.1057	.8674	.004337
.1208	.9243	.0046215
.1358	.9731	.0048655
.1543	1.0282	.005141
.1692	1.068	.00534
.184	1.1035	.0055175
.1989	1.1369	.0056845
.2139	1.1672	.005836
.2288	1.1952	.005976
.2437	1.2204	.006102
.2587	1.2437	.0062185
.2737	1.2648	.006324
.2887	1.2841	.0064205
.3037	1.302	.00651
.3186	1.3179	.0065895
.3337	1.3356	.006678
.3485	1.3478	.006739
.3677	1.3673	.0068365
.3829	1.3797	.0068985
.3982	1.3922	.006961
.4135	1.402	.00701
.4287	1.4099	.0070495
.444	1.4162	.007081
.4592	1.4212	.007106
.4745	1.4247	.0071235
.4898	1.4268	.007134
.505	1.4275	.0071375
.5203	1.4267	.0071335
.5355	1.4244	.007122
.5507	1.4207	.0071035
.566	1.4152	.007076
.5812	1.4083	.0070415
.5964	1.3996	.006998
.6116	1.3889	.0069445
.6269	1.3761	.0068805
.6421	1.3614	.006807
.6573	1.3447	.0067235
.6725	1.3259	.0066295
.6878	1.3038	.006519
.703	1.2788	.006394
.7182	1.245	.006225
.731	1.2101	.0060505
.7468	1.171	.005855
.7627	1.127	.005635
.7786	1.0844	.005422
.7945	1.0378	.005189
.8104	.9871	.0049355
.8263	.9323	.0046615
.8421	.8731	.0043655
.858	.8083	.0040415
.874	.739	.003695
.8899	.6637	.0033185
.9058	.583	.002915
.9218	.4959	.0024795
.9377	.4027	.0020135
.9537	.3036	.001518
.9691	.2013	.0010065
.9846	.0929	.0004645

System: 1-propanol + pyrrole; phases: Liquid
Fixed: Pressure, kPa = 101
Fixed: Temperature, K = 298.15
Property: Excess molar enthalpy (molar enthalpy of mixing), kJ/mol (Liquid); method: isothermal titration calorimeter
Mole fraction of pyrrole	Excess molar enthalpy (molar enthalpy of mixing), kJ/mol	uncertainty
.0299	.0296	.000148
.0598	.0602	.000301
.0897	.1067	.0005335
.1197	.1641	.0008205
.1497	.2288	.001144
.1796	.2971	.0014855
.2096	.3668	.001834
.2396	.436	.00218
.2696	.5034	.002517
.3896	.73105	.00365525
.4197	.7735	.0038675
.4497	.8084	.004042
.4652	.8328	.004164
.4797	.8363	.0041815
.4902	.8583	.0042915
.5202	.8826	.004413
.5502	.8996	.004498
.5803	.909	.004545
.7003	.8633	.0043165
.7303	.8293	.0041465
.7603	.7853	.0039265
.7903	.7307	.0036535
.8203	.66493	.00332465
.8503	.5872	.002936
.8802	.4974	.002487
.9101	.3941	.0019705
.9401	.2755	.0013775
.2996	.5675	.0028375
.3296	.6272	.003136
.3596	.682	.00341
.6103	.9104	.004552
.6403	.9035	.0045175
.6703	.8879	.0044395
.97	.1416	.000708

System: 1-butanol + pyrrole; phases: Liquid
Fixed: Pressure, kPa = 101
Fixed: Temperature, K = 298.15
Property: Excess molar enthalpy (molar enthalpy of mixing), kJ/mol (Liquid); method: isothermal titration calorimeter
Mole fraction of pyrrole	Excess molar enthalpy (molar enthalpy of mixing), kJ/mol	uncertainty
.0262	.019	.000095
.0776	.1038	.000519
.1154	.1898	.000949
.1526	.2841	.0014205
.189	.3807	.0019035
.2248	.4754	.002377
.2599	.5659	.0028295
.2944	.6503	.0032515
.3283	.7274	.003637
.3616	.7965	.0039825
.3943	.8572	.004286
.4265	.9093	.0045465
.4581	.9527	.0047635
.4891	.9873	.0049365
.5196	1.0132	.005066
.5497	1.0304	.005152
.5703	1.0284	.005142
.5792	1.039	.005195
.5803	1.0304	.005152
.6003	1.0314	.005157
.6082	1.0391	.0051955
.6203	1.0283	.0051415
.6225	1.0359	.0051795
.6403	1.0211	.0051055
.6603	1.0097	.0050485
.6803	.9939	.0049695
.7003	.9737	.0048685
.7203	.9488	.004744
.7403	.9192	.004596
.7603	.8847	.0044235
.7803	.8451	.0042255
.8002	.8002	.004001
.8202	.7497	.0037485
.8403	.6935	.0034675
.8603	.6314	.003157
.8802	.5629	.0028145
.9002	.4884	.002442
.9201	.4067	.0020335
.9401	.3183	.0015915
.9601	.2226	.001113
.98	.1192	.000596

System: 1-pentanol + pyrrole; phases: Liquid
Fixed: Pressure, kPa = 101
Fixed: Temperature, K = 298.15
Property: Excess molar enthalpy (molar enthalpy of mixing), kJ/mol (Liquid); method: isothermal titration calorimeter
Mole fraction of pyrrole	Excess molar enthalpy (molar enthalpy of mixing), kJ/mol	uncertainty
.0374	.0355	.0001775
.0962	.1561	.0007805
.1388	.2694	.001347
.1801	.3879	.0019395
.2202	.5041	.0025205
.259	.6144	.003072
.2967	.716	.00358
.3333	.8074	.004037
.3689	.888	.00444
.4034	.9575	.0047875
.437	1.016	.00508
.4696	1.0635	.0053175
.5014	1.1005	.0055025
.5323	1.1272	.005636
.5604	1.1328	.005664
.5624	1.144	.00572
.5804	1.1395	.0056975
.5916	1.1512	.005756
.6004	1.142	.00571
.6202	1.1491	.0057455
.6204	1.1399	.0056995
.6404	1.1332	.005666
.648	1.1381	.0056905
.6604	1.1218	.005609
.6616	1.1294	.005647
.6804	1.1055	.0055275
.7004	1.0841	.0054205
.7204	1.0574	.005287
.7404	1.0252	.005126
.7604	.9873	.0049365
.7804	.9435	.0047175
.8004	.8938	.004469
.8204	.8377	.0041885
.8404	.775	.003875
.8603	.7056	.003528
.8803	.6286	.003143
.9002	.5442	.002721
.9202	.4516	.002258
.9401	.3513	.0017565
.9601	.2409	.0012045
.98	.1208	.000604
