Measured thermophysical data. Experimental measurement and modeling of solubility of LiBr and LiNO3 in methanol, ethanol, 1-propanol, 2-propanol and 1-butanol
Source: Fluid Phase Equilib., 2011, 10.1016/j.fluid.2011.03.017
Compound 1: lithium bromide, BrLi, purity 98%
Compound 2: lithium nitrate, LiNO3, purity 99%
Compound 3: methanol, CH4O, purity 99.5%
Compound 4: ethanol, C2H6O, purity 99.7%
Compound 5: 1-propanol, C3H8O, purity 99%
Compound 6: 2-propanol, C3H8O, purity 99.7%
Compound 7: 1-butanol, C4H10O, purity 99%

System: methanol + lithium bromide; phases: Liquid, Crystal
Fixed: Pressure, kPa = 101
Property: Molality, mol/kg of lithium bromide (Liquid); method: Gravimetric Method
Temperature, K	Molality, mol/kg of lithium bromide	uncertainty
298.15	10.79	.1079
303.15	12.127	.12127
308.15	13.247	.13247
313.15	14.094	.14094
318.15	14.895	.14895
323.15	15.517	.15517
328.15	15.938	.15938
333.15	16.218	.16218
338.15	16.351	.16351

System: ethanol + lithium bromide; phases: Liquid, Crystal
Fixed: Pressure, kPa = 101
Property: Molality, mol/kg of lithium bromide (Liquid); method: Gravimetric Method
Temperature, K	Molality, mol/kg of lithium bromide	uncertainty
298.15	8.21	.0821
303.15	9.035	.09035
308.15	9.786	.09786
313.15	10.421	.10421
318.15	10.928	.10928
323.15	11.326	.11326
328.15	11.601	.11601
333.15	11.784	.11784
338.15	11.882	.11882

System: 1-propanol + lithium bromide; phases: Liquid, Crystal
Fixed: Pressure, kPa = 101
Property: Molality, mol/kg of lithium bromide (Liquid); method: Gravimetric Method
Temperature, K	Molality, mol/kg of lithium bromide	uncertainty
298.15	1.683	.01683
303.15	2.497	.02497
308.15	3.357	.03357
313.15	4.031	.04031
318.15	4.675	.04675
323.15	5.211	.05211
328.15	5.641	.05641
333.15	6.024	.06024
338.15	6.305	.06305

System: 2-propanol + lithium bromide; phases: Liquid, Crystal
Fixed: Pressure, kPa = 101
Property: Molality, mol/kg of lithium bromide (Liquid); method: Gravimetric Method
Temperature, K	Molality, mol/kg of lithium bromide	uncertainty
298.15	3.306	.03306
303.15	3.989	.03989
308.15	4.601	.04601
313.15	5.079	.05079
318.15	5.501	.05501
323.15	5.797	.05797
328.15	6.033	.06033
333.15	6.159	.06159
338.15	6.237	.06237

System: 1-butanol + lithium bromide; phases: Liquid, Crystal
Fixed: Pressure, kPa = 101
Property: Molality, mol/kg of lithium bromide (Liquid); method: Gravimetric Method
Temperature, K	Molality, mol/kg of lithium bromide	uncertainty
298.15	2.003	.02003
303.15	2.412	.02412
308.15	2.814	.02814
313.15	3.159	.03159
318.15	3.429	.03429
323.15	3.642	.03642
328.15	3.846	.03846
333.15	3.997	.03997
338.15	4.126	.04126

System: methanol + lithium nitrate; phases: Liquid, Crystal
Fixed: Pressure, kPa = 101
Property: Molality, mol/kg of lithium nitrate (Liquid); method: Gravimetric Method
Temperature, K	Molality, mol/kg of lithium nitrate	uncertainty
298.15	8.221	.08221
303.15	8.703	.08703
308.15	9.047	.09047
313.15	9.335	.09335
318.15	9.606	.09606
323.15	9.826	.09826
328.15	10.013	.10013
333.15	10.125	.10125
338.15	10.203	.10203

System: ethanol + lithium nitrate; phases: Liquid, Crystal
Fixed: Pressure, kPa = 101
Property: Molality, mol/kg of lithium nitrate (Liquid); method: Gravimetric Method
Temperature, K	Molality, mol/kg of lithium nitrate	uncertainty
298.15	3.985	.03985
303.15	4.212	.04212
308.15	4.433	.04433
313.15	4.634	.04634
318.15	4.808	.04808
323.15	4.942	.04942
328.15	5.048	.05048
333.15	5.133	.05133
338.15	5.191	.05191

System: 1-propanol + lithium nitrate; phases: Liquid, Crystal
Fixed: Pressure, kPa = 101
Property: Molality, mol/kg of lithium nitrate (Liquid); method: Gravimetric Method
Temperature, K	Molality, mol/kg of lithium nitrate	uncertainty
298.15	2.795	.02795
303.15	2.867	.02867
308.15	2.964	.02964
313.15	3.057	.03057
318.15	3.146	.03146
323.15	3.211	.03211
328.15	3.291	.03291
333.15	3.341	.03341
338.15	3.399	.03399

System: 2-propanol + lithium nitrate; phases: Liquid, Crystal
Fixed: Pressure, kPa = 101
Property: Molality, mol/kg of lithium nitrate (Liquid); method: Gravimetric Method
Temperature, K	Molality, mol/kg of lithium nitrate	uncertainty
298.15	2.155	.02155
303.15	2.291	.02291
308.15	2.43	.0243
313.15	2.565	.02565
318.15	2.666	.02666
323.15	2.765	.02765
328.15	2.853	.02853
333.15	2.93	.0293
338.15	2.975	.02975

System: 1-butanol + lithium nitrate; phases: Liquid, Crystal
Fixed: Pressure, kPa = 101
Property: Molality, mol/kg of lithium nitrate (Liquid); method: Gravimetric Method
Temperature, K	Molality, mol/kg of lithium nitrate	uncertainty
298.15	2.162	.02162
303.15	2.236	.02236
308.15	2.309	.02309
313.15	2.374	.02374
318.15	2.426	.02426
323.15	2.482	.02482
328.15	2.525	.02525
333.15	2.558	.02558
338.15	2.579	.02579
