Measured thermophysical data. A new microebulliometer for the measurement of the vapor liquidequilibrium of ionic liquid systems
Source: Fluid Phase Equilib., 2013, 10.1016/j.fluid.2013.06.015
Compound 1: 1-ethyl-3-methylimidazolium chloride, C6H11ClN2, purity 98%
Compound 2: 1-butyl-3-methylimidazolium chloride, C8H15ClN2, purity 98%
Compound 3: 1-hexyl-3-methylimidazolium chloride, C10H19ClN2, purity 98%
Compound 4: choline chloride, C5H14ClNO, purity 98%
Compound 5: water, H2O
Compound 6: ethanol, C2H6O, purity 99.8%

System: water + 1-ethyl-3-methylimidazolium chloride; phases: Liquid, Gas
Property: Boiling temperature at pressure P, K (Liquid); method: Ebulliometric method (Recirculating still)
Pressure, kPa	Mole fraction of water	Boiling temperature at pressure P, K	uncertainty
100	.868	384.12	.02
100	.843	387.1	.02
100	.824	389.34	.02
100	.813	390.14	.02
100	.798	392.58	.02
100	.777	394.56	.02
100	.763	396.8	.02
100	.886	382.25	.02
100	.898	381.12	.02
100	.966	375.65	.02
100	.955	376.19	.02
100	.939	377.52	.02
100	.923	378.51	.02
100	.909	379.96	.02
100	.975	374.88	.02
100	.998	373.66	.02
100	.749	400	.02
100	.736	401.71	.02
100	.719	404.71	.02
100	.713	406.3	.02
100	.693	409.47	.02
100	.663	414.52	.02
100	.654	416.3	.02
100	.645	418.65	.02
100	.636	419.93	.02
100	.625	422.01	.02
100	.617	425	.02
100	.603	426.9	.02
100	.592	430.32	.02
100	.582	431.99	.02
100	.568	435.03	.02
70	.998	364.02	.02
70	.983	364.72	.02
70	.972	365.06	.02
70	.955	366.46	.02
70	.949	366.67	.02
70	.929	368.25	.02
70	.907	370.05	.02
70	.902	370.3	.02
70	.888	371.42	.02
70	.877	372.64	.02
70	.859	374.55	.02
70	.84	376.36	.02
70	.832	377.78	.02
70	.822	378.36	.02
70	.812	379.9	.02
70	.793	382.37	.02
70	.78	383.59	.02
70	.757	387.45	.02
70	.752	388.47	.02
70	.746	389.39	.02
70	.733	391.36	.02
70	.722	393.61	.02
70	.713	394.65	.02
70	.689	398.79	.02
70	.659	403.11	.02
70	.651	405.98	.02
70	.636	409.01	.02
70	.618	413.9	.02
70	.598	417.7	.02
70	.592	418.77	.02
70	.578	421.93	.02
50	.998	355.58	.02
50	.991	355.66	.02
50	.979	356.24	.02
50	.97	356.56	.02
50	.954	357.69	.02
50	.943	358.36	.02
50	.927	359.36	.02
50	.91	360.94	.02
50	.903	361.33	.02
50	.892	362.22	.02
50	.892	362.22	.02
50	.879	363.41	.02
50	.866	364.44	.02
50	.859	365.26	.02
50	.843	367.61	.02
50	.826	369.65	.02
50	.806	371.07	.02
50	.789	373.68	.02
50	.774	375.36	.02
50	.756	378.59	.02
50	.745	379.47	.02
50	.708	385.15	.02
50	.698	386.47	.02
50	.679	389.51	.02
50	.67	391.27	.02
50	.653	393.93	.02
50	.641	395.61	.02
50	.636	397.54	.02
50	.618	402	.02
50	.593	407.18	.02
50	.58	409.3	.02

System: water + 1-butyl-3-methylimidazolium chloride; phases: Liquid, Gas
Property: Boiling temperature at pressure P, K (Liquid); method: Ebulliometric method (Recirculating still)
Pressure, kPa	Mole fraction of water	Boiling temperature at pressure P, K	uncertainty
100	.988	372.66	.02
100	.976	373.55	.02
100	.974	374.48	.02
100	.97	374.26	.02
100	.964	374.67	.02
100	.945	374.76	.02
100	.921	378.05	.02
100	.901	379.17	.02
100	.879	380.97	.02
100	.866	382.49	.02
100	.842	385	.02
100	.822	387.31	.02
100	.789	391.18	.02
100	.779	394.25	.02
100	.762	395.74	.02
100	.753	397.15	.02
100	.745	397.55	.02
100	.729	400.03	.02
100	.706	404.19	.02
100	.681	408.99	.02
100	.666	411.09	.02
100	.664	412.4	.02
100	.647	415.09	.02
100	.628	418.62	.02
100	.625	420.09	.02
100	.6	424.54	.02
100	.585	429.69	.02
70	.985	363.49	.02
70	.976	364.38	.02
70	.969	364.72	.02
70	.969	364.86	.02
70	.966	365.21	.02
70	.947	365.91	.02
70	.922	368.28	.02
70	.9	369.76	.02
70	.875	371.45	.02
70	.863	372.86	.02
70	.841	375.23	.02
70	.824	377.32	.02
70	.801	380.38	.02
70	.778	382.72	.02
70	.766	384.83	.02
70	.757	386.57	.02
70	.755	386.33	.02
70	.73	389.14	.02
70	.705	393.19	.02
70	.688	396.71	.02
70	.649	402.78	.02
70	.646	403.13	.02
70	.626	405.83	.02
70	.62	407.62	.02
70	.605	410.88	.02
70	.58	414.97	.02
50	.988	354.92	.02
50	.976	355.92	.02
50	.97	356.11	.02
50	.969	356.29	.02
50	.966	356.5	.02
50	.945	357.17	.02
50	.923	359.27	.02
50	.901	361.06	.02
50	.88	362.41	.02
50	.867	363.72	.02
50	.844	365.28	.02
50	.824	367.83	.02
50	.802	370.39	.02
50	.777	373.3	.02
50	.769	373.89	.02
50	.751	376.21	.02
50	.751	376.74	.02
50	.73	378.89	.02
50	.705	382.7	.02
50	.691	386.37	.02
50	.684	387.27	.02
50	.668	388.5	.02
50	.656	391.83	.02
50	.651	391.99	.02
50	.635	393.77	.02
50	.631	394.72	.02
50	.609	399.53	.02
50	.581	405.02	.02

System: water + 1-hexyl-3-methylimidazolium chloride; phases: Liquid, Gas
Property: Boiling temperature at pressure P, K (Liquid); method: Ebulliometric method (Recirculating still)
Pressure, kPa	Mole fraction of water	Boiling temperature at pressure P, K	uncertainty
100	.996	373.13	.02
100	.994	373.39	.02
100	.991	373.66	.02
100	.984	373.79	.02
100	.98	374.03	.02
100	.976	374.33	.02
100	.965	374.57	.02
100	.954	375.1	.02
100	.945	375.57	.02
100	.933	376.13	.02
100	.918	377.09	.02
100	.912	377.8	.02
100	.901	378.6	.02
100	.887	379.6	.02
100	.879	380.37	.02
100	.871	381.25	.02
100	.864	381.96	.02
100	.853	383.08	.02
100	.84	384.2	.02
100	.836	384.59	.02
100	.832	385.09	.02
100	.82	386.27	.02
100	.813	387.08	.02
100	.808	388.02	.02
100	.796	389.15	.02
100	.787	390.07	.02
100	.776	391.17	.02
100	.767	392.23	.02
100	.758	393.39	.02
100	.744	394.83	.02
100	.718	397.29	.02
100	.694	400.21	.02
100	.668	403.25	.02
100	.649	405.3	.02
70	.996	363.46	.02
70	.993	363.56	.02
70	.991	363.74	.02
70	.984	363.9	.02
70	.98	364.14	.02
70	.975	364.45	.02
70	.966	364.86	.02
70	.956	365.37	.02
70	.949	366.01	.02
70	.937	366.49	.02
70	.92	367.27	.02
70	.912	367.94	.02
70	.902	368.7	.02
70	.888	369.79	.02
70	.88	370.33	.02
70	.873	370.95	.02
70	.864	371.8	.02
70	.853	372.29	.02
70	.84	373.49	.02
70	.829	374.67	.02
70	.821	375.61	.02
70	.82	375.7	.02
70	.819	375.83	.02
70	.808	376.32	.02
70	.8	377.54	.02
70	.786	378.83	.02
70	.778	379.36	.02
70	.775	380.34	.02
70	.761	381.53	.02
70	.747	382.8	.02
70	.725	384.7	.02
70	.699	386.81	.02
70	.671	391.39	.02
70	.655	393.61	.02
50	.996	354.64	.02
50	.994	354.7	.02
50	.991	354.83	.02
50	.984	355.02	.02
50	.982	355.19	.02
50	.975	355.42	.02
50	.966	356.03	.02
50	.956	356.69	.02
50	.95	357.06	.02
50	.936	357.43	.02
50	.92	357.96	.02
50	.912	358.91	.02
50	.903	359.94	.02
50	.889	360.4	.02
50	.881	360.93	.02
50	.875	361.5	.02
50	.864	361.83	.02
50	.853	362.87	.02
50	.84	363.37	.02
50	.832	364.28	.02
50	.83	364.89	.02
50	.827	365.21	.02
50	.806	366.01	.02
50	.806	366.09	.02
50	.8	366.6	.02
50	.786	368.16	.02
50	.781	369.03	.02
50	.774	369.71	.02
50	.761	370.34	.02
50	.753	371.27	.02
50	.721	374.92	.02
50	.702	376.29	.02
50	.67	381.29	.02
50	.655	383.26	.02

System: choline chloride + water; phases: Liquid, Gas
Property: Boiling temperature at pressure P, K (Liquid); method: Ebulliometric method (Recirculating still)
Pressure, kPa	Mole fraction of water	Boiling temperature at pressure P, K	uncertainty
100	.985	372.46	.02
100	.985	371.97	.02
100	.979	372.93	.02
100	.971	373.12	.02
100	.955	374	.02
100	.941	375.08	.02
100	.933	376.35	.02
100	.923	376.33	.02
100	.9	378.19	.02
100	.859	381.6	.02
100	.806	386.8	.02
100	.754	392.77	.02
100	.705	398.97	.02
100	.67	402.54	.02
100	.635	407.78	.02
100	.618	410.03	.02
100	.614	411.12	.02
70	.985	363.7	.02
70	.982	363.47	.02
70	.979	363.69	.02
70	.972	364.03	.02
70	.959	364.72	.02
70	.944	365.71	.02
70	.933	366.16	.02
70	.924	366.91	.02
70	.9	368.71	.02
70	.859	372.24	.02
70	.809	376.75	.02
70	.754	382.62	.02
70	.705	388.36	.02
70	.67	392.82	.02
70	.632	398.47	.02
70	.619	399.9	.02
70	.612	400.27	.02
50	.985	355.11	.02
50	.982	355.15	.02
50	.98	355.93	.02
50	.972	355.71	.02
50	.959	356.36	.02
50	.943	357.19	.02
50	.936	357.67	.02
50	.924	358.26	.02
50	.9	359.88	.02
50	.86	363.24	.02
50	.81	367.7	.02
50	.761	372.65	.02
50	.704	378.69	.02
50	.671	382.75	.02
50	.629	388.91	.02
50	.623	389.14	.02
50	.619	389.79	.02

System: ethanol + 1-ethyl-3-methylimidazolium chloride; phases: Liquid, Gas
Property: Boiling temperature at pressure P, K (Liquid); method: Ebulliometric method (Recirculating still)
Pressure, kPa	Mole fraction of ethanol	Boiling temperature at pressure P, K	uncertainty
100	.997	351.1	.02
100	.979	351.7	.02
100	.966	352.25	.02
100	.95	353.07	.02
100	.936	353.64	.02
100	.915	354.63	.02
100	.891	356.24	.02
100	.871	357.98	.02
100	.862	358.8	.02
100	.836	361.07	.02
100	.834	360.96	.02
100	.813	363.21	.02
100	.798	364.46	.02
100	.795	365.49	.02
100	.784	366.9	.02
100	.759	369.56	.02
100	.756	369.89	.02
100	.739	371.34	.02
100	.72	373.03	.02
100	.712	375.18	.02
100	.68	376.96	.02
100	.654	378.99	.02
100	.651	381.37	.02
100	.61	385.17	.02
100	.61	383.87	.02
100	.578	388.38	.02
100	.564	389.89	.02
100	.537	392.85	.02
100	.532	392.42	.02
70	.997	342.66	.02
70	.992	342.69	.02
70	.959	343.31	.02
70	.939	344.05	.02
70	.922	344.67	.02
70	.899	345.61	.02
70	.872	347.14	.02
70	.846	348.66	.02
70	.81	350.92	.02
70	.807	351.3	.02
70	.786	353.8	.02
70	.763	355.88	.02
70	.75	357.97	.02
70	.718	358.33	.02
70	.706	360	.02
70	.7	361.14	.02
70	.681	361.84	.02
70	.669	365.37	.02
70	.64	366.33	.02
70	.613	369.04	.02
70	.594	371.72	.02
70	.56	372.53	.02
70	.538	373.84	.02
70	.529	375.32	.02
70	.517	375.97	.02
70	.49	378.51	.02
70	.468	381.44	.02
50	.995	334.8	.02
50	.974	335.12	.02
50	.959	335.53	.02
50	.939	336.07	.02
50	.922	336.81	.02
50	.899	337.33	.02
50	.872	339.07	.02
50	.85	340.38	.02
50	.843	340.33	.02
50	.811	342.63	.02
50	.783	345.13	.02
50	.763	346.28	.02
50	.753	346.88	.02
50	.753	346.88	.02
50	.728	350.03	.02
50	.707	351.22	.02
50	.674	353.25	.02
50	.666	356.3	.02
50	.643	357.71	.02
50	.626	360.1	.02
50	.611	360.6	.02
50	.604	360.13	.02
50	.561	363.28	.02
50	.553	365.46	.02
50	.533	365.88	.02
50	.523	368.26	.02
50	.512	368.83	.02
50	.478	371.58	.02

System: ethanol + 1-butyl-3-methylimidazolium chloride; phases: Liquid, Gas
Property: Boiling temperature at pressure P, K (Liquid); method: Ebulliometric method (Recirculating still)
Pressure, kPa	Mole fraction of ethanol	Boiling temperature at pressure P, K	uncertainty
100	1	351.07	.02
100	.983	351.42	.02
100	.977	351.51	.02
100	.951	352.63	.02
100	.944	352.98	.02
100	.922	353.72	.02
100	.917	353.45	.02
100	.886	356.11	.02
100	.855	358.54	.02
100	.848	358.64	.02
100	.829	361.14	.02
100	.818	361.25	.02
100	.796	364.39	.02
100	.781	365.12	.02
100	.767	367.83	.02
100	.749	368.11	.02
100	.734	371.5	.02
100	.703	375.06	.02
100	.681	378.76	.02
100	.673	379.12	.02
100	.655	380.76	.02
100	.647	382.6	.02
100	.625	385.78	.02
100	.613	387.01	.02
100	.601	390.06	.02
100	.571	395.14	.02
100	.543	399.2	.02
100	.542	399.37	.02
100	.522	402.03	.02
100	.5	405.89	.02
70	1	342.76	.02
70	.983	342.87	.02
70	.977	342.83	.02
70	.963	343.25	.02
70	.955	343.59	.02
70	.943	343.97	.02
70	.925	345.17	.02
70	.897	346.41	.02
70	.887	347.36	.02
70	.861	348.76	.02
70	.856	349.48	.02
70	.848	349.56	.02
70	.825	352.12	.02
70	.819	352.01	.02
70	.797	354.89	.02
70	.78	357.23	.02
70	.776	356.19	.02
70	.768	358.07	.02
70	.734	362.81	.02
70	.714	365.59	.02
70	.685	368.88	.02
70	.669	369.74	.02
70	.654	372.06	.02
70	.645	372.93	.02
70	.624	376.51	.02
70	.596	381.44	.02
70	.575	384.38	.02
70	.544	389.12	.02
70	.519	391.89	.02
70	.497	394.68	.02
50	1	335.03	.02
50	.983	335.25	.02
50	.971	334.77	.02
50	.959	335.55	.02
50	.931	336.7	.02
50	.925	337.33	.02
50	.887	339.37	.02
50	.886	339.2	.02
50	.857	341.51	.02
50	.849	341.57	.02
50	.826	343.8	.02
50	.819	343.56	.02
50	.797	346.44	.02
50	.779	349.33	.02
50	.768	351.05	.02
50	.736	354.35	.02
50	.711	356.97	.02
50	.71	357.22	.02
50	.683	359.18	.02
50	.673	361.5	.02
50	.649	363.33	.02
50	.642	364.63	.02
50	.617	367.44	.02
50	.592	370.22	.02
50	.579	372.04	.02
50	.557	374.57	.02
50	.532	378.17	.02
50	.513	381.62	.02
50	.482	385.12	.02
50	.459	388.33	.02

System: ethanol + 1-hexyl-3-methylimidazolium chloride; phases: Liquid, Gas
Property: Boiling temperature at pressure P, K (Liquid); method: Ebulliometric method (Recirculating still)
Pressure, kPa	Mole fraction of ethanol	Boiling temperature at pressure P, K	uncertainty
100	.991	351.94	.02
100	.974	352.21	.02
100	.962	352.57	.02
100	.949	352.97	.02
100	.932	353.9	.02
100	.913	354.93	.02
100	.884	356.83	.02
100	.858	358.79	.02
100	.848	359.84	.02
100	.822	362.09	.02
100	.808	364.19	.02
100	.788	366.36	.02
100	.767	368.68	.02
100	.75	370.6	.02
100	.73	373.2	.02
100	.707	376.26	.02
100	.682	379.5	.02
100	.658	383.21	.02
100	.625	388.96	.02
100	.605	392.29	.02
100	.588	394.6	.02
100	.576	396.89	.02
100	.55	401.81	.02
100	.521	406.86	.02
100	.504	411.86	.02
70	.993	343.07	.02
70	.97	343.26	.02
70	.962	343.63	.02
70	.95	344.05	.02
70	.933	344.87	.02
70	.913	345.75	.02
70	.883	347.68	.02
70	.866	348.82	.02
70	.848	349.98	.02
70	.823	352.13	.02
70	.808	354.04	.02
70	.788	356.13	.02
70	.769	358.19	.02
70	.752	360.47	.02
70	.734	362.56	.02
70	.709	365.9	.02
70	.681	369.39	.02
70	.656	372.7	.02
70	.623	377.17	.02
70	.605	381.5	.02
70	.578	385.14	.02
70	.56	389.18	.02
70	.551	391.16	.02
70	.521	395.7	.02
70	.504	399.58	.02
50	.992	335.15	.02
50	.971	335.3	.02
50	.962	335.76	.02
50	.949	336.27	.02
50	.932	336.96	.02
50	.911	337.75	.02
50	.883	339.57	.02
50	.866	340.62	.02
50	.85	341.68	.02
50	.823	343.36	.02
50	.808	345.2	.02
50	.787	347.26	.02
50	.769	349.2	.02
50	.751	351.72	.02
50	.733	354.48	.02
50	.708	357.44	.02
50	.678	359.9	.02
50	.657	363.86	.02
50	.625	367.07	.02
50	.6	371.5	.02
50	.574	375.08	.02
50	.548	379.08	.02
50	.52	381.16	.02
50	.502	385.72	.02
50	.463	389.46	.02

System: ethanol + choline chloride; phases: Liquid, Gas
Property: Boiling temperature at pressure P, K (Liquid); method: Ebulliometric method (Recirculating still)
Pressure, kPa	Mole fraction of ethanol	Boiling temperature at pressure P, K	uncertainty
100	.996	351.06	.02
100	.995	351.48	.02
100	.99	351.21	.02
100	.983	351.2	.02
100	.972	351.88	.02
100	.967	351.62	.02
100	.963	351.71	.02
100	.956	351.99	.02
100	.951	352.17	.02
100	.95	352.16	.02
100	.947	352.12	.02
100	.947	352.13	.02
100	.944	352.69	.02
100	.943	352.36	.02
100	.94	352.86	.02
100	.935	352.89	.02
100	.933	352.9	.02
100	.931	352.88	.02
100	.926	353.06	.02
70	.995	342.62	.02
70	.989	342.53	.02
70	.981	342.66	.02
70	.972	343.02	.02
70	.966	343.05	.02
70	.963	343.19	.02
70	.962	343.17	.02
70	.956	343.37	.02
70	.953	343.27	.02
70	.952	343.56	.02
70	.949	343.29	.02
70	.947	343.51	.02
70	.947	343.37	.02
70	.944	343.48	.02
70	.942	343.56	.02
70	.939	343.87	.02
70	.935	343.9	.02
70	.931	343.87	.02
70	.925	344.03	.02
50	.995	334.99	.02
50	.989	334.81	.02
50	.981	334.88	.02
50	.972	335.22	.02
50	.965	335.31	.02
50	.963	335.52	.02
50	.962	335.39	.02
50	.956	335.59	.02
50	.952	335.61	.02
50	.952	335.54	.02
50	.952	335.54	.02
50	.949	335.55	.02
50	.944	335.8	.02
50	.943	335.78	.02
50	.939	335.84	.02
50	.935	335.86	.02
50	.934	335.87	.02
50	.931	335.89	.02
50	.924	336	.02
