Measured thermophysical data. The solubility of mercaptosuccinic acid in water + (methanol, ethanol, acetone) mixtures from (278.15 to 333.15 K)
Source: Fluid Phase Equilib., 2014, 10.1016/j.fluid.2013.11.001
Compound 1: succinic acid, mercapto-, C4H6O4S, purity 99.89%
Compound 2: water, H2O, purity 99.8%
Compound 3: methanol, CH4O, purity 99.7%
Compound 4: ethanol, C2H6O, purity 99.98%
Compound 5: acetone, C3H6O, purity 99.7%

System: methanol + succinic acid, mercapto- + water; phases: Liquid, Crystal
Fixed: Pressure, kPa = 101.3
Property: Mole fraction of succinic acid, mercapto- (Liquid); method: Gravimetric Method
Solvent: Mass fraction of methanol	Temperature, K	Mole fraction of succinic acid, mercapto-	uncertainty
.0808	278.15	.0199	.0002
.0808	283.15	.0228	.0002
.0808	288.15	.0263	.0002
.0808	293.15	.03	.0002
.0808	298.15	.0346	.0002
.0808	303.15	.0388	.0002
.0808	308.15	.0439	.0002
.0808	313.15	.0495	.0002
.0808	318.15	.056	.0002
.0808	323.15	.0627	.0002
.0808	328.15	.07	.0002
.0808	333.15	.0784	.0002
.2532	278.15	.0446	.0002
.2532	283.15	.0474	.0002
.2532	288.15	.0507	.0002
.2532	293.15	.0534	.0002
.2532	298.15	.0568	.0002
.2532	303.15	.0605	.0002
.2532	308.15	.0645	.0002
.2532	313.15	.0694	.0002
.2532	318.15	.0741	.0002
.2532	323.15	.0786	.0002
.2532	328.15	.0838	.0002
.2532	333.15	.0903	.0002
.4417	278.15	.0651	.0002
.4417	283.15	.0677	.0002
.4417	288.15	.0707	.0002
.4417	293.15	.0734	.0002
.4417	298.15	.0764	.0002
.4417	303.15	.0803	.0002
.4417	308.15	.0841	.0002
.4417	313.15	.088	.0002
.4417	318.15	.0933	.0002
.4417	323.15	.0976	.0002
.4417	328.15	.1029	.0002
.4417	333.15	.1094	.0002
.5426	278.15	.0704	.0002
.5426	283.15	.0738	.0002
.5426	288.15	.0766	.0002
.5426	293.15	.0806	.0002
.5426	298.15	.0846	.0002
.5426	303.15	.0883	.0002
.5426	308.15	.0933	.0002
.5426	313.15	.0983	.0002
.5426	318.15	.1031	.0002
.5426	323.15	.1094	.0002
.5426	328.15	.1161	.0002
.5426	333.15	.1225	.0002
.6486	278.15	.0811	.0002
.6486	283.15	.084	.0002
.6486	288.15	.0881	.0002
.6486	293.15	.092	.0002
.6486	298.15	.0961	.0002
.6486	303.15	.1005	.0002
.6486	308.15	.1053	.0002
.6486	313.15	.1099	.0002
.6486	318.15	.1156	.0002
.6486	323.15	.1219	.0002
.6486	328.15	.1285	.0002
.6486	333.15	.136	.0002
.8768	278.15	.0949	.0002
.8768	283.15	.0994	.0002
.8768	288.15	.1043	.0002
.8768	293.15	.1094	.0002
.8768	298.15	.1149	.0002
.8768	303.15	.1204	.0002
.8768	308.15	.127	.0002
.8768	313.15	.1338	.0002
.8768	318.15	.1409	.0002
.8768	323.15	.148	.0002
.8768	328.15	.1577	.0002
.8768	333.15	.1664	.0002

System: ethanol + succinic acid, mercapto- + water; phases: Liquid, Crystal
Fixed: Pressure, kPa = 101.3
Property: Mole fraction of succinic acid, mercapto- (Liquid); method: Gravimetric Method
Solvent: Mass fraction of ethanol	Temperature, K	Mole fraction of succinic acid, mercapto-	uncertainty
.0808	278.15	.0187	.0002
.0808	283.15	.0213	.0002
.0808	288.15	.0247	.0002
.0808	293.15	.0283	.0002
.0808	298.15	.0318	.0002
.0808	303.15	.0372	.0002
.0808	308.15	.0416	.0002
.0808	313.15	.0468	.0002
.0808	318.15	.0527	.0002
.0808	323.15	.0592	.0002
.0808	328.15	.0663	.0002
.0808	333.15	.0746	.0002
.4417	278.15	.0572	.0002
.4417	283.15	.0595	.0002
.4417	288.15	.063	.0002
.4417	293.15	.0658	.0002
.4417	298.15	.0691	.0002
.4417	303.15	.072	.0002
.4417	308.15	.0764	.0002
.4417	313.15	.0808	.0002
.4417	318.15	.0847	.0002
.4417	323.15	.0898	.0002
.4417	328.15	.094	.0002
.4417	333.15	.1001	.0002
.2532	278.15	.0332	.0002
.2532	283.15	.0364	.0002
.2532	288.15	.0404	.0002
.2532	293.15	.0447	.0002
.2532	298.15	.049	.0002
.2532	303.15	.0527	.0002
.2532	308.15	.0572	.0002
.2532	313.15	.0637	.0002
.2532	318.15	.0685	.0002
.2532	323.15	.0753	.0002
.2532	328.15	.0815	.0002
.2532	333.15	.0891	.0002
.5426	278.15	.069	.0002
.5426	283.15	.0712	.0002
.5426	288.15	.0748	.0002
.5426	293.15	.077	.0002
.5426	298.15	.0803	.0002
.5426	303.15	.0835	.0002
.5426	308.15	.0878	.0002
.5426	313.15	.0918	.0002
.5426	318.15	.0966	.0002
.5426	323.15	.1017	.0002
.5426	328.15	.1069	.0002
.5426	333.15	.1126	.0002
.6486	278.15	.0717	.0002
.6486	283.15	.0761	.0002
.6486	288.15	.0808	.0002
.6486	293.15	.0856	.0002
.6486	298.15	.0905	.0002
.6486	303.15	.0961	.0002
.6486	308.15	.1016	.0002
.6486	313.15	.1075	.0002
.6486	318.15	.1146	.0002
.6486	323.15	.1216	.0002
.6486	328.15	.1294	.0002
.6486	333.15	.1374	.0002
.8768	278.15	.0989	.0002
.8768	283.15	.1044	.0002
.8768	288.15	.1103	.0002
.8768	293.15	.1167	.0002
.8768	298.15	.1225	.0002
.8768	303.15	.1291	.0002
.8768	308.15	.1364	.0002
.8768	313.15	.1449	.0002
.8768	318.15	.1527	.0002
.8768	323.15	.1609	.0002
.8768	328.15	.1707	.0002
.8768	333.15	.1814	.0002

System: acetone + succinic acid, mercapto- + water; phases: Liquid, Crystal
Fixed: Pressure, kPa = 101.3
Property: Mole fraction of succinic acid, mercapto- (Liquid); method: Gravimetric Method
Solvent: Mass fraction of acetone	Temperature, K	Mole fraction of succinic acid, mercapto-	uncertainty
.0808	278.15	.0173	.0002
.0808	283.15	.0197	.0002
.0808	288.15	.0228	.0002
.0808	293.15	.0262	.0002
.0808	298.15	.0305	.0002
.0808	303.15	.0343	.0002
.0808	308.15	.039	.0002
.0808	313.15	.0444	.0002
.0808	318.15	.0501	.0002
.0808	323.15	.0566	.0002
.0808	328.15	.0635	.0002
.0808	333.15	.0713	.0002
.2532	278.15	.0319	.0002
.2532	283.15	.0349	.0002
.2532	288.15	.0378	.0002
.2532	293.15	.0421	.0002
.2532	298.15	.0454	.0002
.2532	303.15	.0499	.0002
.2532	308.15	.0547	.0002
.2532	313.15	.0589	.0002
.2532	318.15	.0644	.0002
.2532	323.15	.0701	.0002
.2532	328.15	.076	.0002
.2532	333.15	.0826	.0002
.4417	278.15	.0482	.0002
.4417	283.15	.0513	.0002
.4417	288.15	.0548	.0002
.4417	293.15	.0588	.0002
.4417	298.15	.0623	.0002
.4417	303.15	.0661	.0002
.4417	308.15	.0706	.0002
.4417	313.15	.0755	.0002
.4417	318.15	.0801	.0002
.4417	323.15	.0856	.0002
.4417	328.15	.0914	.0002
.4417	333.15	.0978	.0002
.5426	278.15	.0621	.0002
.5426	283.15	.0647	.0002
.5426	288.15	.0674	.0002
.5426	293.15	.0703	.0002
.5426	298.15	.0736	.0002
.5426	303.15	.077	.0002
.5426	308.15	.0806	.0002
.5426	313.15	.0844	.0002
.5426	318.15	.0888	.0002
.5426	323.15	.0929	.0002
.5426	328.15	.0981	.0002
.5426	333.15	.1037	.0002
.6486	278.15	.071	.0002
.6486	283.15	.0737	.0002
.6486	288.15	.0767	.0002
.6486	293.15	.0796	.0002
.6486	298.15	.0826	.0002
.6486	303.15	.0865	.0002
.6486	308.15	.0903	.0002
.6486	313.15	.0943	.0002
.6486	318.15	.099	.0002
.6486	323.15	.1032	.0002
.6486	328.15	.1094	.0002
.6486	333.15	.1143	.0002
.8768	278.15	.0882	.0002
.8768	283.15	.092	.0002
.8768	288.15	.0968	.0002
.8768	293.15	.1007	.0002
.8768	298.15	.1048	.0002
.8768	303.15	.1094	.0002
.8768	308.15	.1143	.0002
.8768	313.15	.1208	.0002
.8768	318.15	.1265	.0002
.8768	323.15	.133	.0002
.8768	328.15	.1412	.0002
.8768	333.15	.1485	.0002
