Measured thermophysical data. Excess volumes and excess heat capacities for alkanediol + water systems in the temperature interval (283.15-313.15) K
Source: Fluid Phase Equilib., 2013, 10.1016/j.fluid.2013.06.041
Compound 1: 1-butanol, C4H10O, purity 99.8%
Compound 2: 1,2-ethanediol, C2H6O2, purity 99.8%
Compound 3: 1,3-propanediol, C3H8O2, purity 98%
Compound 4: 1,2-propanediol, C3H8O2, purity 99.5%
Compound 5: 1,4-butanediol, C4H10O2, purity 99%
Compound 6: 1,2-hexanediol, C6H14O2, purity 98%
Compound 7: water, H2O, purity 99.8%

System: 1,2-ethanediol; phases: Liquid
Fixed: Pressure, kPa = 101.325
Property: Mass density, kg/m3 (Liquid); method: Vibrating tube method
Temperature, K	Mass density, kg/m3	uncertainty
283.15	1120.39	.1
293.15	1113.34	.1
298.15	1109.79	.1
303.15	1106.23	.1
313.15	1099.07	.1

System: 1,2-ethanediol; phases: Liquid
Fixed: Pressure, kPa = 101.325
Property: Molar heat capacity at constant pressure, J/K/mol (Liquid); method: Small sample (50 mg) DSC
Temperature, K	Molar heat capacity at constant pressure, J/K/mol	uncertainty
283.15	145.38	2.9076
293.15	148.527	2.97054
298.15	150.219	3.00438
303.15	151.958	3.03916
313.15	155.486	3.10972

System: 1,3-propanediol; phases: Liquid
Fixed: Pressure, kPa = 101.325
Property: Mass density, kg/m3 (Liquid); method: Vibrating tube method
Temperature, K	Mass density, kg/m3	uncertainty
283.15	1059.14	.1
293.15	1052.85	.1
298.15	1049.68	.1
303.15	1046.51	.1
313.15	1040.12	.1

System: 1,3-propanediol; phases: Liquid
Fixed: Pressure, kPa = 101.325
Property: Molar heat capacity at constant pressure, J/K/mol (Liquid); method: Small sample (50 mg) DSC
Temperature, K	Molar heat capacity at constant pressure, J/K/mol	uncertainty
283.15	169.437	3.38874
293.15	174.371	3.48742
298.15	176.905	3.5381
303.15	179.517	3.59034
313.15	185.087	3.70174

System: 1,2-propanediol; phases: Liquid
Fixed: Pressure, kPa = 101.325
Property: Mass density, kg/m3 (Liquid); method: Vibrating tube method
Temperature, K	Mass density, kg/m3	uncertainty
283.15	1043.89	.1
293.15	1036.58	.1
298.15	1032.86	.1
303.15	1029.1	.1
313.15	1021.48	.1

System: 1,2-propanediol; phases: Liquid
Fixed: Pressure, kPa = 101.325
Property: Molar heat capacity at constant pressure, J/K/mol (Liquid); method: Small sample (50 mg) DSC
Temperature, K	Molar heat capacity at constant pressure, J/K/mol	uncertainty
283.15	183.257	3.66514
293.15	188.621	3.77242
298.15	191.288	3.82576
303.15	193.948	3.87896
313.15	199.253	3.98506

System: 1,4-butanediol; phases: Liquid
Fixed: Pressure, kPa = 101.325
Property: Mass density, kg/m3 (Liquid); method: Vibrating tube method
Temperature, K	Mass density, kg/m3	uncertainty
283.15	1022.21	.1
293.15	1016.11	.1
298.15	1013.06	.1
303.15	1009.99	.1
313.15	1003.85	.1

System: 1,4-butanediol; phases: Liquid
Fixed: Pressure, kPa = 101.325
Property: Molar heat capacity at constant pressure, J/K/mol (Liquid); method: Small sample (50 mg) DSC
Temperature, K	Molar heat capacity at constant pressure, J/K/mol	uncertainty
283.15	195.506	3.91012
293.15	200.854	4.01708
298.15	203.726	4.07452
303.15	206.711	4.13422
313.15	212.958	4.25916

System: 1,2-hexanediol; phases: Liquid
Fixed: Pressure, kPa = 101.325
Property: Mass density, kg/m3 (Liquid); method: Vibrating tube method
Temperature, K	Mass density, kg/m3	uncertainty
283.15	958.85	.1
293.15	951.73	.1
298.15	948.1	.1
303.15	944.44	.1
313.15	937.06	.1

System: 1,2-hexanediol; phases: Liquid
Fixed: Pressure, kPa = 101.325
Property: Molar heat capacity at constant pressure, J/K/mol (Liquid); method: Small sample (50 mg) DSC
Temperature, K	Molar heat capacity at constant pressure, J/K/mol	uncertainty
283.15	277.105	5.5421
293.15	287.757	5.75514
298.15	293.095	5.8619
303.15	298.44	5.9688
313.15	309.15	6.183

System: 1,2-ethanediol + water; phases: Liquid
Fixed: Pressure, kPa = 101
Property: Excess molar volume, m3/mol (Liquid); method: Calculated with densities of this investigation
Temperature, K	Mole fraction of 1,2-ethanediol	Excess molar volume, m3/mol	uncertainty
283.15	.00991	-.0000000159	.000000003
283.15	.01256	-.00000002	.000000003
283.15	.02619	-.000000042	.000000003
283.15	.04637	-.0000000777	.000000003
283.15	.07516	-.000000129	.000000003
283.15	.09514	-.0000001663	.000000003
283.15	.10163	-.000000176	.000000003
283.15	.12445	-.000000213	.000000003
283.15	.14906	-.0000002503	.000000003
283.15	.17311	-.0000002812	.000000003
283.15	.19996	-.0000003129	.000000003
283.15	.20039	-.0000003111	.000000003
283.15	.20833	-.0000003196	.000000003
283.15	.22025	-.000000329	.000000003
283.15	.25008	-.0000003542	.000000003
283.15	.29027	-.0000003794	.000000003
283.15	.40764	-.0000004006	.000000003
283.15	.46407	-.000000391	.000000003
283.15	.60656	-.0000003285	.000000003
283.15	.69588	-.0000002682	.000000003
283.15	.77876	-.0000002017	.000000003
283.15	.79885	-.0000001852	.000000003
283.15	.804	-.0000001797	.000000003
283.15	.84631	-.0000001425	.000000003
283.15	.88645	-.0000001063	.000000003
283.15	.93081	-.0000000642	.000000003
283.15	.93949	-.000000055	.000000003
293.15	.00991	-.0000000134	.000000003
293.15	.01256	-.0000000172	.000000003
293.15	.02619	-.0000000373	.000000003
293.15	.04637	-.0000000695	.000000003
293.15	.07516	-.0000001151	.000000003
293.15	.09514	-.0000001485	.000000003
293.15	.10163	-.0000001571	.000000003
293.15	.12445	-.0000001901	.000000003
293.15	.14906	-.0000002236	.000000003
293.15	.17311	-.0000002516	.000000003
293.15	.19996	-.0000002805	.000000003
293.15	.20039	-.0000002788	.000000003
293.15	.20833	-.0000002866	.000000003
293.15	.22025	-.0000002952	.000000003
293.15	.25008	-.0000003186	.000000003
293.15	.29027	-.0000003423	.000000003
293.15	.40764	-.0000003639	.000000003
293.15	.46407	-.000000356	.000000003
293.15	.60656	-.0000003007	.000000003
293.15	.69588	-.000000246	.000000003
293.15	.77876	-.0000001853	.000000003
293.15	.79885	-.0000001703	.000000003
293.15	.804	-.0000001651	.000000003
293.15	.84631	-.0000001309	.000000003
293.15	.88645	-.0000000978	.000000003
293.15	.93081	-.000000059	.000000003
293.15	.93949	-.0000000503	.000000003
298.15	.00991	-.0000000123	.000000003
298.15	.01256	-.000000016	.000000003
298.15	.02619	-.0000000354	.000000003
298.15	.04637	-.0000000663	.000000003
298.15	.07516	-.0000001097	.000000003
298.15	.09514	-.0000001415	.000000003
298.15	.10163	-.0000001496	.000000003
298.15	.12445	-.000000181	.000000003
298.15	.14906	-.0000002129	.000000003
298.15	.17311	-.0000002396	.000000003
298.15	.19996	-.0000002674	.000000003
298.15	.20039	-.0000002656	.000000003
298.15	.20833	-.0000002731	.000000003
298.15	.22025	-.0000002813	.000000003
298.15	.25008	-.0000003038	.000000003
298.15	.29027	-.0000003269	.000000003
298.15	.40764	-.0000003484	.000000003
298.15	.46407	-.0000003412	.000000003
298.15	.60656	-.0000002887	.000000003
298.15	.69588	-.0000002364	.000000003
298.15	.77876	-.0000001782	.000000003
298.15	.79885	-.0000001638	.000000003
298.15	.804	-.0000001587	.000000003
298.15	.84631	-.000000126	.000000003
298.15	.88645	-.000000094	.000000003
298.15	.93081	-.0000000568	.000000003
298.15	.93949	-.0000000483	.000000003
303.15	.00991	-.0000000113	.000000003
303.15	.01256	-.0000000149	.000000003
303.15	.02619	-.0000000338	.000000003
303.15	.04637	-.0000000635	.000000003
303.15	.07516	-.0000001051	.000000003
303.15	.09514	-.0000001354	.000000003
303.15	.10163	-.0000001431	.000000003
303.15	.12445	-.000000173	.000000003
303.15	.14906	-.0000002035	.000000003
303.15	.17311	-.000000229	.000000003
303.15	.19996	-.0000002555	.000000003
303.15	.20039	-.0000002538	.000000003
303.15	.20833	-.0000002611	.000000003
303.15	.22025	-.000000269	.000000003
303.15	.25008	-.0000002907	.000000003
303.15	.29027	-.000000313	.000000003
303.15	.40764	-.0000003344	.000000003
303.15	.46407	-.0000003277	.000000003
303.15	.60656	-.0000002779	.000000003
303.15	.69588	-.0000002278	.000000003
303.15	.77876	-.0000001717	.000000003
303.15	.79885	-.0000001579	.000000003
303.15	.804	-.000000153	.000000003
303.15	.84631	-.0000001214	.000000003
303.15	.88645	-.0000000906	.000000003
303.15	.93081	-.0000000546	.000000003
303.15	.93949	-.0000000466	.000000003
313.15	.00991	-.0000000084	.000000003
313.15	.01256	-.0000000129	.000000003
313.15	.02619	-.0000000307	.000000003
313.15	.04637	-.0000000589	.000000003
313.15	.07516	-.0000000972	.000000003
313.15	.09514	-.0000001252	.000000003
313.15	.10163	-.0000001322	.000000003
313.15	.12445	-.0000001596	.000000003
313.15	.14906	-.0000001875	.000000003
313.15	.17311	-.0000002111	.000000003
313.15	.19996	-.0000002356	.000000003
313.15	.20039	-.0000002339	.000000003
313.15	.20833	-.0000002405	.000000003
313.15	.22025	-.0000002478	.000000003
313.15	.25008	-.000000268	.000000003
313.15	.29027	-.000000289	.000000003
313.15	.40764	-.0000003099	.000000003
313.15	.46407	-.0000003042	.000000003
313.15	.60656	-.0000002589	.000000003
313.15	.69588	-.0000002127	.000000003
313.15	.77876	-.0000001605	.000000003
313.15	.79885	-.0000001475	.000000003
313.15	.804	-.0000001431	.000000003
313.15	.84631	-.0000001136	.000000003
313.15	.88645	-.0000000848	.000000003
313.15	.93081	-.000000051	.000000003
313.15	.93949	-.0000000435	.000000003

System: 1,2-ethanediol + water; phases: Liquid
Fixed: Pressure, kPa = 101
Property: Excess molar heat capacity, J/K/mol (Liquid); method: Small sample (50 mg) DSC
Temperature, K	Mole fraction of 1,2-ethanediol	Excess molar heat capacity, J/K/mol	uncertainty
283.15	.00991	.43	.2
283.15	.02619	.87	.2
283.15	.04637	1.03	.2
283.15	.07516	1.32	.2
283.15	.10163	1.26	.2
283.15	.12445	1.16	.2
283.15	.14906	.94	.2
283.15	.17311	.76	.2
283.15	.29027	-.72	.2
283.15	.40764	-1.26	.2
283.15	.46407	-1.33	.2
283.15	.60656	-1.31	.2
283.15	.69588	-1.2	.2
283.15	.804	-.93	.2
283.15	.84631	-.75	.2
283.15	.93949	-.42	.2
293.15	.00991	.3	.2
293.15	.02619	.79	.2
293.15	.04637	1.25	.2
293.15	.07516	1.72	.2
293.15	.12445	1.91	.2
293.15	.14906	1.76	.2
293.15	.17311	1.68	.2
293.15	.29027	.61	.2
293.15	.40764	.05	.2
293.15	.46407	-.12	.2
293.15	.60656	-.35	.2
293.15	.69588	-.43	.2
293.15	.804	-.36	.2
293.15	.84631	-.36	.2
293.15	.93949	-.19	.2
298.15	.00991	.26	.2
298.15	.02619	.76	.2
298.15	.04637	1.33	.2
298.15	.07516	1.85	.2
298.15	.09514	1.99	.2
298.15	.12445	2.17	.2
298.15	.14906	2.08	.2
298.15	.17311	2.01	.2
298.15	.29027	1.14	.2
298.15	.40764	.54	.2
298.15	.46407	.35	.2
298.15	.60656	.02	.2
298.15	.69588	-.12	.2
298.15	.804	-.2	.2
298.15	.84631	-.22	.2
298.15	.93949	-.19	.2
303.15	.00991	.26	.2
303.15	.02619	.75	.2
303.15	.04637	1.39	.2
303.15	.07516	1.96	.2
303.15	.09514	2.2	.2
303.15	.12445	2.38	.2
303.15	.14906	2.35	.2
303.15	.17311	2.29	.2
303.15	.29027	1.6	.2
303.15	.40764	.98	.2
303.15	.46407	.78	.2
303.15	.60656	.035	.2
303.15	.69588	.15	.2
303.15	.804	-.07	.2
303.15	.88645	-.3	.2
303.15	.93949	-.21	.2
313.15	.00991	.37	.2
313.15	.02619	.74	.2
313.15	.04637	1.5	.2
313.15	.07516	2.17	.2
313.15	.09514	2.5	.2
313.15	.12445	2.76	.2
313.15	.14906	2.82	.2
313.15	.22025	2.62	.2
313.15	.29027	2.42	.2
313.15	.40764	1.82	.2
313.15	.46407	1.58	.2
313.15	.60656	.96	.2
313.15	.69588	.63	.2
313.15	.804	.18	.2
313.15	.88645	-.14	.2
313.15	.93949	-.09	.2

System: 1,2-propanediol + water; phases: Liquid
Fixed: Pressure, kPa = 101
Property: Excess molar volume, m3/mol (Liquid); method: Calculated with densities of this investigation
Temperature, K	Mole fraction of 1,2-propanediol	Excess molar volume, m3/mol	uncertainty
283.15	.0222	-.0000000649	.000000003
283.15	.05617	-.0000001951	.000000003
283.15	.0784	-.0000002902	.000000003
283.15	.1224	-.0000004508	.000000003
283.15	.1545	-.000000552	.000000003
283.15	.1667	-.000000583	.000000003
283.15	.1873	-.0000006277	.000000003
283.15	.1918	-.0000006274	.000000003
283.15	.2272	-.000000693	.000000003
283.15	.2878	-.0000007461	.000000003
283.15	.3965	-.0000007461	.000000003
283.15	.4863	-.0000007025	.000000003
283.15	.5274	-.0000006727	.000000003
283.15	.6388	-.0000005503	.000000003
283.15	.753	-.000000398	.000000003
283.15	.7757	-.0000003702	.000000003
283.15	.8592	-.0000002415	.000000003
283.15	.9045	-.0000001706	.000000003
283.15	.9069	-.0000001585	.000000003
283.15	.9677	-.0000000564	.000000003
293.15	.0222	-.0000000634	.000000003
293.15	.05617	-.0000001852	.000000003
293.15	.0784	-.0000002721	.000000003
293.15	.1224	-.0000004173	.000000003
293.15	.1545	-.0000005094	.000000003
293.15	.1667	-.0000005377	.000000003
293.15	.1873	-.000000579	.000000003
293.15	.1918	-.0000005782	.000000003
293.15	.2272	-.00000064	.000000003
293.15	.2878	-.0000006912	.000000003
293.15	.3965	-.0000006945	.000000003
293.15	.4863	-.0000006564	.000000003
293.15	.5274	-.0000006301	.000000003
293.15	.6388	-.000000517	.000000003
293.15	.753	-.0000003748	.000000003
293.15	.7757	-.0000003494	.000000003
293.15	.8592	-.0000002283	.000000003
293.15	.9045	-.000000162	.000000003
293.15	.9069	-.0000001498	.000000003
293.15	.9677	-.0000000539	.000000003
298.15	.0222	-.0000000628	.000000003
298.15	.05617	-.0000001812	.000000003
298.15	.0784	-.0000002648	.000000003
298.15	.1224	-.0000004032	.000000003
298.15	.1545	-.0000004913	.000000003
298.15	.1667	-.0000005185	.000000003
298.15	.1873	-.0000005582	.000000003
298.15	.1918	-.0000005571	.000000003
298.15	.2272	-.0000006171	.000000003
298.15	.2878	-.0000006674	.000000003
298.15	.3965	-.0000006719	.000000003
298.15	.4863	-.0000006361	.000000003
298.15	.5274	-.0000006114	.000000003
298.15	.6388	-.0000005023	.000000003
298.15	.753	-.0000003646	.000000003
298.15	.7757	-.0000003402	.000000003
298.15	.8592	-.0000002225	.000000003
298.15	.9045	-.0000001581	.000000003
298.15	.9069	-.000000146	.000000003
298.15	.9677	-.0000000526	.000000003
303.15	.0222	-.0000000621	.000000003
303.15	.05617	-.0000001776	.000000003
303.15	.0784	-.0000002581	.000000003
303.15	.1224	-.0000003905	.000000003
303.15	.1545	-.000000475	.000000003
303.15	.1667	-.0000005011	.000000003
303.15	.1873	-.0000005392	.000000003
303.15	.1918	-.0000005379	.000000003
303.15	.2272	-.0000005962	.000000003
303.15	.2878	-.0000006454	.000000003
303.15	.3965	-.0000006511	.000000003
303.15	.4863	-.0000006171	.000000003
303.15	.5274	-.0000005942	.000000003
303.15	.6388	-.0000004888	.000000003
303.15	.753	-.0000003554	.000000003
303.15	.7757	-.0000003319	.000000003
303.15	.8592	-.0000002176	.000000003
303.15	.9045	-.0000001548	.000000003
303.15	.9069	-.0000001424	.000000003
303.15	.9677	-.0000000514	.000000003
313.15	.0222	-.0000000607	.000000003
313.15	.05617	-.0000001711	.000000003
313.15	.0784	-.0000002462	.000000003
313.15	.1224	-.000000368	.000000003
313.15	.1545	-.0000004459	.000000003
313.15	.1667	-.00000047	.000000003
313.15	.1873	-.0000005055	.000000003
313.15	.1918	-.0000005038	.000000003
313.15	.2272	-.0000005589	.000000003
313.15	.2878	-.0000006061	.000000003
313.15	.3965	-.0000006136	.000000003
313.15	.4863	-.0000005817	.000000003
313.15	.5274	-.000000563	.000000003
313.15	.6388	-.0000004646	.000000003
313.15	.753	-.0000003389	.000000003
313.15	.7757	-.0000003171	.000000003
313.15	.8592	-.0000002084	.000000003
313.15	.9045	-.0000001487	.000000003
313.15	.9069	-.0000001364	.000000003
313.15	.9677	-.0000000494	.000000003

System: 1,2-propanediol + water; phases: Liquid
Fixed: Pressure, kPa = 101
Property: Excess molar heat capacity, J/K/mol (Liquid); method: Small sample (50 mg) DSC
Temperature, K	Mole fraction of 1,2-propanediol	Excess molar heat capacity, J/K/mol	uncertainty
283.15	.02216	1.78	.2
283.15	.05617	3.3	.2
283.15	.07845	4.67	.2
283.15	.12242	5.38	.2
283.15	.1545	5.22	.2
283.15	.16673	4.94	.2
283.15	.18733	4.62	.2
283.15	.22724	4.15	.2
283.15	.28785	2.67	.2
283.15	.39653	1.6	.2
283.15	.48629	.67	.2
283.15	.52742	.69	.2
283.15	.63877	.77	.2
283.15	.75296	.72	.2
283.15	.77572	.8	.2
283.15	.90446	.26	.2
283.15	.96768	.09	.2
293.15	.02216	2.01	.2
293.15	.05617	3.57	.2
293.15	.07845	5.18	.2
293.15	.12242	6.18	.2
293.15	.1545	6.19	.2
293.15	.16673	6.02	.2
293.15	.18733	5.79	.2
293.15	.22724	5.41	.2
293.15	.28785	4.01	.2
293.15	.39653	3.11	.2
293.15	.48629	1.88	.2
293.15	.52742	1.74	.2
293.15	.63877	1.63	.2
293.15	.75296	1.32	.2
293.15	.77572	1.04	.2
293.15	.90446	.38	.2
293.15	.96768	-.08	.2
298.15	.02216	1.98	.2
298.15	.05617	3.62	.2
298.15	.07845	5.29	.2
298.15	.12242	6.43	.2
298.15	.1545	6.5	.2
298.15	.16673	6.37	.2
298.15	.18733	6.18	.2
298.15	.22724	5.86	.2
298.15	.28785	4.52	.2
298.15	.39653	3.65	.2
298.15	.48629	2.34	.2
298.15	.52742	2.17	.2
298.15	.63877	1.97	.2
298.15	.75296	1.55	.2
298.15	.77572	1.24	.2
298.15	.90446	.11	.2
298.15	.96768	-.13	.2
303.15	.02216	1.95	.2
303.15	.05617	3.63	.2
303.15	.07845	5.35	.2
303.15	.12242	6.6	.2
303.15	.1545	6.73	.2
303.15	.16673	6.62	.2
303.15	.18733	6.49	.2
303.15	.22724	6.21	.2
303.15	.28785	4.94	.2
303.15	.39653	4.08	.2
303.15	.48629	2.75	.2
303.15	.52742	2.58	.2
303.15	.63877	2.3	.2
303.15	.75296	1.76	.2
303.15	.77572	1.47	.2
303.15	.90446	.14	.2
303.15	.96768	-.15	.2
313.15	.02216	1.84	.2
313.15	.05617	3.59	.2
313.15	.07845	5.39	.2
313.15	.12242	6.81	.2
313.15	.1545	6.96	.2
313.15	.16673	6.95	.2
313.15	.18733	6.9	.2
313.15	.22724	6.72	.2
313.15	.28785	5.62	.2
313.15	.39653	4.77	.2
313.15	.48629	3.53	.2
313.15	.52742	3.35	.2
313.15	.63877	3.01	.2
313.15	.75296	2.18	.2
313.15	.77572	1.96	.2
313.15	.90446	.32	.2
313.15	.96768	-.06	.2

System: 1,3-propanediol + water; phases: Liquid
Fixed: Pressure, kPa = 101
Property: Excess molar volume, m3/mol (Liquid); method: Calculated with densities of this investigation
Temperature, K	Mole fraction of 1,3-propanediol	Excess molar volume, m3/mol	uncertainty
283.15	.02483	-.0000000223	.000000003
283.15	.03693	-.0000000408	.000000003
283.15	.05016	-.0000000642	.000000003
283.15	.07515	-.0000001154	.000000003
283.15	.08034	-.0000001268	.000000003
283.15	.09925	-.0000001678	.000000003
283.15	.14014	-.0000002472	.000000003
283.15	.15035	-.0000002651	.000000003
283.15	.19867	-.0000003426	.000000003
283.15	.299	-.0000004417	.000000003
283.15	.39819	-.0000004768	.000000003
283.15	.4976	-.0000004629	.000000003
283.15	.59519	-.0000004139	.000000003
283.15	.59552	-.0000004129	.000000003
283.15	.70253	-.0000003284	.000000003
283.15	.7902	-.0000002413	.000000003
283.15	.89889	-.0000001193	.000000003
283.15	.94548	-.0000000666	.000000003
293.15	.02483	-.0000000222	.000000003
293.15	.03693	-.0000000395	.000000003
293.15	.05016	-.0000000607	.000000003
293.15	.07515	-.0000001063	.000000003
293.15	.08034	-.0000001165	.000000003
293.15	.09925	-.0000001529	.000000003
293.15	.14014	-.0000002241	.000000003
293.15	.15035	-.0000002403	.000000003
293.15	.19867	-.0000003113	.000000003
293.15	.299	-.0000004046	.000000003
293.15	.39819	-.0000004401	.000000003
293.15	.4976	-.0000004299	.000000003
293.15	.59519	-.0000003861	.000000003
293.15	.59552	-.0000003856	.000000003
293.15	.70253	-.0000003078	.000000003
293.15	.7902	-.0000002269	.000000003
293.15	.89889	-.0000001121	.000000003
293.15	.94548	-.0000000627	.000000003
298.15	.02483	-.0000000222	.000000003
298.15	.03693	-.000000039	.000000003
298.15	.05016	-.0000000594	.000000003
298.15	.07515	-.0000001029	.000000003
298.15	.08034	-.0000001125	.000000003
298.15	.09925	-.0000001472	.000000003
298.15	.14014	-.0000002149	.000000003
298.15	.15035	-.0000002304	.000000003
298.15	.19867	-.0000002984	.000000003
298.15	.299	-.0000003887	.000000003
298.15	.39819	-.0000004241	.000000003
298.15	.4976	-.0000004154	.000000003
298.15	.59519	-.0000003741	.000000003
298.15	.59552	-.0000003738	.000000003
298.15	.70253	-.000000299	.000000003
298.15	.7902	-.000000221	.000000003
298.15	.89889	-.0000001097	.000000003
298.15	.94548	-.0000000615	.000000003
303.15	.02483	-.0000000221	.000000003
303.15	.03693	-.0000000385	.000000003
303.15	.05016	-.0000000583	.000000003
303.15	.07515	-.0000000998	.000000003
303.15	.08034	-.0000001091	.000000003
303.15	.09925	-.0000001421	.000000003
303.15	.14014	-.0000002065	.000000003
303.15	.15035	-.0000002213	.000000003
303.15	.19867	-.0000002865	.000000003
303.15	.299	-.0000003741	.000000003
303.15	.39819	-.0000004092	.000000003
303.15	.4976	-.0000004018	.000000003
303.15	.59519	-.0000003628	.000000003
303.15	.59552	-.0000003625	.000000003
303.15	.70253	-.0000002907	.000000003
303.15	.7902	-.0000002152	.000000003
303.15	.89889	-.0000001068	.000000003
303.15	.94548	-.0000000599	.000000003
313.15	.02483	-.0000000216	.000000003
313.15	.03693	-.000000037	.000000003
313.15	.05016	-.000000056	.000000003
313.15	.07515	-.0000000943	.000000003
313.15	.08034	-.0000001027	.000000003
313.15	.09925	-.0000001329	.000000003
313.15	.14014	-.0000001917	.000000003
313.15	.15035	-.0000002052	.000000003
313.15	.19867	-.0000002653	.000000003
313.15	.299	-.0000003473	.000000003
313.15	.39819	-.0000003817	.000000003
313.15	.4976	-.0000003767	.000000003
313.15	.59519	-.0000003415	.000000003
313.15	.59552	-.0000003414	.000000003
313.15	.70253	-.0000002751	.000000003
313.15	.7902	-.0000002041	.000000003
313.15	.89889	-.0000001017	.000000003
313.15	.94548	-.0000000572	.000000003

System: 1,3-propanediol + water; phases: Liquid
Fixed: Pressure, kPa = 101
Property: Excess molar heat capacity, J/K/mol (Liquid); method: Small sample (50 mg) DSC
Temperature, K	Mole fraction of 1,3-propanediol	Excess molar heat capacity, J/K/mol	uncertainty
283.15	.02483	1.28	.2
283.15	.03693	1.89	.2
283.15	.05016	2.35	.2
283.15	.07515	2.54	.2
283.15	.14014	2.24	.2
283.15	.15035	2.2	.2
283.15	.299	1.59	.2
283.15	.39819	1.31	.2
283.15	.4976	1.26	.2
283.15	.59552	1.15	.2
283.15	.7902	.98	.2
283.15	.94548	.48	.2
293.15	.02483	1.4	.2
293.15	.03693	2.08	.2
293.15	.05016	2.72	.2
293.15	.07515	3.22	.2
293.15	.14014	3.61	.2
293.15	.15035	3.67	.2
293.15	.299	3.18	.2
293.15	.39819	2.66	.2
293.15	.4976	2.34	.2
293.15	.59552	1.92	.2
293.15	.70253	1.71	.2
293.15	.7902	1.19	.2
293.15	.94548	.53	.2
298.15	.02483	1.43	.2
298.15	.03693	2.13	.2
298.15	.05016	2.83	.2
298.15	.07515	3.44	.2
298.15	.14014	4.11	.2
298.15	.15035	4.21	.2
298.15	.299	3.84	.2
298.15	.39819	3.28	.2
298.15	.4976	2.82	.2
298.15	.59552	2.33	.2
298.15	.70253	1.95	.2
298.15	.7902	1.3	.2
298.15	.94548	.58	.2
303.15	.02483	1.44	.2
303.15	.03693	2.16	.2
303.15	.05016	2.9	.2
303.15	.07515	3.59	.2
303.15	.14014	4.52	.2
303.15	.15035	4.64	.2
303.15	.299	4.43	.2
303.15	.39819	3.85	.2
303.15	.4976	3.25	.2
303.15	.59552	2.74	.2
303.15	.70253	2.2	.2
303.15	.7902	1.4	.2
303.15	.94548	.61	.2
313.15	.02483	1.46	.2
313.15	.03693	2.26	.2
313.15	.05016	2.99	.2
313.15	.07515	3.8	.2
313.15	.14014	5.08	.2
313.15	.15035	5.27	.2
313.15	.299	5.44	.2
313.15	.39819	4.81	.2
313.15	.4976	4.02	.2
313.15	.59552	3.48	.2
313.15	.70253	2.64	.2
313.15	.7902	1.49	.2
313.15	.94548	.55	.2

System: 1,4-butanediol + water; phases: Liquid
Fixed: Pressure, kPa = 101
Property: Excess molar volume, m3/mol (Liquid); method: Calculated with densities of this investigation
Temperature, K	Mole fraction of 1,4-butanediol	Excess molar volume, m3/mol	uncertainty
283.15	.00538	-.0000000045	.000000003
283.15	.01312	-.000000014	.000000003
283.15	.02505	-.0000000379	.000000003
283.15	.02518	-.0000000378	.000000003
283.15	.03528	-.0000000637	.000000003
283.15	.04842	-.0000001028	.000000003
283.15	.0574	-.0000001307	.000000003
283.15	.07589	-.0000001887	.000000003
283.15	.08236	-.0000002095	.000000003
283.15	.09032	-.0000002345	.000000003
283.15	.10046	-.0000002584	.000000003
283.15	.13962	-.0000003702	.000000003
283.15	.14031	-.0000003704	.000000003
283.15	.18684	-.0000004565	.000000003
283.15	.29606	-.000000604	.000000003
283.15	.39721	-.0000006441	.000000003
283.15	.49652	-.0000006263	.000000003
283.15	.56588	-.000000587	.000000003
283.15	.70036	-.0000004585	.000000003
283.15	.7915	-.0000003271	.000000003
283.15	.88729	-.0000001895	.000000003
283.15	.93976	-.0000001049	.000000003
293.15	.00538	-.0000000039	.000000003
293.15	.01312	-.0000000139	.000000003
293.15	.02505	-.0000000364	.000000003
293.15	.02518	-.0000000364	.000000003
293.15	.03528	-.0000000598	.000000003
293.15	.04842	-.0000000942	.000000003
293.15	.0574	-.0000001187	.000000003
293.15	.07589	-.0000001693	.000000003
293.15	.08236	-.0000001875	.000000003
293.15	.09032	-.0000002093	.000000003
293.15	.10046	-.0000002294	.000000003
293.15	.13962	-.0000003292	.000000003
293.15	.14031	-.0000003294	.000000003
293.15	.18684	-.0000004059	.000000003
293.15	.29606	-.0000005454	.000000003
293.15	.39721	-.0000005873	.000000003
293.15	.49652	-.000000576	.000000003
293.15	.56588	-.0000005425	.000000003
293.15	.70036	-.000000428	.000000003
293.15	.7915	-.0000003069	.000000003
293.15	.88729	-.000000179	.000000003
293.15	.93976	-.0000000997	.000000003
298.15	.00538	-.0000000036	.000000003
298.15	.01312	-.0000000137	.000000003
298.15	.02505	-.0000000356	.000000003
298.15	.02518	-.0000000356	.000000003
298.15	.03528	-.0000000579	.000000003
298.15	.04842	-.0000000905	.000000003
298.15	.0574	-.0000001135	.000000003
298.15	.07589	-.000000161	.000000003
298.15	.08236	-.000000178	.000000003
298.15	.09032	-.0000001984	.000000003
298.15	.10046	-.0000002168	.000000003
298.15	.13962	-.0000003112	.000000003
298.15	.14031	-.0000003115	.000000003
298.15	.18684	-.0000003833	.000000003
298.15	.29606	-.0000005189	.000000003
298.15	.39721	-.0000005612	.000000003
298.15	.49652	-.0000005527	.000000003
298.15	.56588	-.000000522	.000000003
298.15	.70036	-.0000004136	.000000003
298.15	.7915	-.0000002974	.000000003
298.15	.88729	-.0000001743	.000000003
298.15	.93976	-.0000000971	.000000003
303.15	.00538	-.000000003	.000000003
303.15	.01312	-.0000000133	.000000003
303.15	.02505	-.0000000346	.000000003
303.15	.02518	-.0000000346	.000000003
303.15	.03528	-.000000056	.000000003
303.15	.04842	-.0000000869	.000000003
303.15	.0574	-.0000001086	.000000003
303.15	.07589	-.0000001532	.000000003
303.15	.08236	-.0000001691	.000000003
303.15	.09032	-.0000001883	.000000003
303.15	.10046	-.000000205	.000000003
303.15	.13962	-.0000002945	.000000003
303.15	.14031	-.0000002948	.000000003
303.15	.18684	-.0000003621	.000000003
303.15	.29606	-.0000004938	.000000003
303.15	.39721	-.0000005364	.000000003
303.15	.49652	-.0000005301	.000000003
303.15	.56588	-.0000005018	.000000003
303.15	.70036	-.0000003997	.000000003
303.15	.7915	-.0000002881	.000000003
303.15	.88729	-.0000001694	.000000003
303.15	.93976	-.0000000946	.000000003
313.15	.01312	-.0000000104	.000000003
313.15	.02505	-.0000000196	.000000003
313.15	.02518	-.0000000259	.000000003
313.15	.03528	-.0000000506	.000000003
313.15	.04842	-.0000000793	.000000003
313.15	.0574	-.0000000983	.000000003
313.15	.07589	-.0000001383	.000000003
313.15	.08236	-.0000001524	.000000003
313.15	.09032	-.0000001693	.000000003
313.15	.10046	-.0000001832	.000000003
313.15	.13962	-.0000002635	.000000003
313.15	.14031	-.0000002638	.000000003
313.15	.18684	-.0000003229	.000000003
313.15	.29606	-.0000004463	.000000003
313.15	.39721	-.0000004886	.000000003
313.15	.49652	-.0000004865	.000000003
313.15	.56588	-.0000004627	.000000003
313.15	.70036	-.000000372	.000000003
313.15	.7915	-.0000002694	.000000003
313.15	.88729	-.0000001598	.000000003
313.15	.93976	-.0000000896	.000000003

System: 1,4-butanediol + water; phases: Liquid
Fixed: Pressure, kPa = 101
Property: Excess molar heat capacity, J/K/mol (Liquid); method: Small sample (50 mg) DSC
Temperature, K	Mole fraction of 1,4-butanediol	Excess molar heat capacity, J/K/mol	uncertainty
283.15	.00538	1.24	.2
283.15	.01312	2.19	.2
283.15	.02505	3.41	.2
283.15	.02518	3.17	.2
283.15	.03528	4.45	.2
283.15	.04842	5.39	.2
283.15	.0574	6.22	.2
283.15	.07589	6.43	.2
283.15	.08236	6.7	.2
283.15	.09032	6.66	.2
283.15	.10046	6.94	.2
283.15	.13962	6.87	.2
283.15	.14031	6.85	.2
283.15	.18684	6.33	.2
283.15	.29606	5.63	.2
283.15	.39721	4.75	.2
283.15	.49652	4.04	.2
283.15	.56588	3.29	.2
283.15	.70036	2.95	.2
283.15	.79641	2.92	.2
283.15	.88729	1.38	.2
283.15	.93976	.81	.2
293.15	.00538	1.14	.2
293.15	.01312	2.16	.2
293.15	.02505	3.49	.2
293.15	.02518	3.34	.2
293.15	.03528	4.6	.2
293.15	.04842	5.61	.2
293.15	.0574	6.53	.2
293.15	.07589	7.15	.2
293.15	.08236	7.51	.2
293.15	.09032	7.65	.2
293.15	.10046	8.03	.2
293.15	.13962	8.33	.2
293.15	.14031	8.37	.2
293.15	.18684	8.24	.2
293.15	.29606	7.75	.2
293.15	.39721	6.83	.2
293.15	.49652	5.92	.2
293.15	.56588	5.08	.2
293.15	.70036	4.32	.2
293.15	.79641	3.47	.2
293.15	.88729	2.21	.2
293.15	.93976	1.14	.2
298.15	.00538	1.06	.2
298.15	.01312	2.08	.2
298.15	.02505	3.5	.2
298.15	.02518	3.32	.2
298.15	.03528	4.58	.2
298.15	.04842	5.64	.2
298.15	.0574	6.59	.2
298.15	.07589	7.34	.2
298.15	.08236	7.71	.2
298.15	.09032	7.89	.2
298.15	.10046	8.38	.2
298.15	.13962	8.81	.2
298.15	.14031	8.87	.2
298.15	.18684	9.84	.2
298.15	.29606	8.91	.2
298.15	.39721	7.7	.2
298.15	.49652	6.8	.2
298.15	.56588	5.88	.2
298.15	.70036	4.96	.2
298.15	.79641	3.89	.2
298.15	.88729	2.5	.2
298.15	.93976	1.34	.2
303.15	.00538	1.01	.2
303.15	.01312	2.01	.2
303.15	.02505	3.52	.2
303.15	.02518	3.28	.2
303.15	.03528	4.53	.2
303.15	.04842	5.65	.2
303.15	.0574	6.62	.2
303.15	.07589	7.46	.2
303.15	.08236	7.85	.2
303.15	.09032	8.04	.2
303.15	.10046	8.63	.2
303.15	.13962	9.17	.2
303.15	.14031	9.24	.2
303.15	.18684	10.39	.2
303.15	.29606	9.42	.2
303.15	.49652	7.63	.2
303.15	.56588	6.64	.2
303.15	.70036	5.57	.2
303.15	.79641	4.33	.2
303.15	.88729	2.79	.2
303.15	.93976	1.56	.2
313.15	.00538	1.1	.2
313.15	.01312	1.92	.2
313.15	.02505	3.58	.2
313.15	.02518	3.33	.2
313.15	.03528	4.52	.2
313.15	.04842	5.67	.2
313.15	.0574	6.68	.2
313.15	.07589	7.6	.2
313.15	.08236	8.09	.2
313.15	.09032	8.25	.2
313.15	.10046	8.9	.2
313.15	.13962	9.74	.2
313.15	.14031	9.77	.2
313.15	.18684	11.21	.2
313.15	.29606	10.66	.2
313.15	.39721	10.31	.2
313.15	.49652	9.13	.2
313.15	.56588	8.11	.2
313.15	.70036	6.8	.2
313.15	.79641	5.14	.2
313.15	.88729	3.63	.2
313.15	.93976	2.03	.2

System: 1,2-hexanediol + water; phases: Liquid
Fixed: Pressure, kPa = 101
Property: Excess molar volume, m3/mol (Liquid); method: Calculated with densities of this investigation
Temperature, K	Mole fraction of 1,2-hexanediol	Excess molar volume, m3/mol	uncertainty
283.15	.04908	-.0000002002	.000000003
283.15	.09952	-.0000002837	.000000003
283.15	.19886	-.0000003922	.000000003
283.15	.29881	-.0000004433	.000000003
283.15	.40147	-.0000004505	.000000003
283.15	.48414	-.000000431	.000000003
283.15	.55355	-.0000003977	.000000003
283.15	.69719	-.0000003034	.000000003
283.15	.79271	-.0000002219	.000000003
283.15	.88217	-.0000001347	.000000003
283.15	.9437	-.0000000692	.000000003
283.15	.97842	-.0000000322	.000000003
293.15	.04908	-.0000001748	.000000003
293.15	.09952	-.0000002506	.000000003
293.15	.19886	-.0000003495	.000000003
293.15	.29881	-.0000003962	.000000003
293.15	.40147	-.0000004032	.000000003
293.15	.48414	-.0000003856	.000000003
293.15	.55355	-.0000003563	.000000003
293.15	.69719	-.0000002707	.000000003
293.15	.79271	-.000000198	.000000003
293.15	.88217	-.0000001199	.000000003
293.15	.9437	-.0000000618	.000000003
293.15	.97842	-.0000000294	.000000003
298.15	.04908	-.0000001646	.000000003
298.15	.09952	-.0000002369	.000000003
298.15	.19886	-.0000003315	.000000003
298.15	.29881	-.0000003762	.000000003
298.15	.40147	-.0000003831	.000000003
298.15	.48414	-.0000003666	.000000003
298.15	.55355	-.0000003392	.000000003
298.15	.69719	-.0000002575	.000000003
298.15	.79271	-.0000001882	.000000003
298.15	.88217	-.0000001138	.000000003
298.15	.9437	-.000000059	.000000003
298.15	.97842	-.0000000281	.000000003
303.15	.04908	-.0000001557	.000000003
303.15	.09952	-.0000002247	.000000003
303.15	.19886	-.0000003149	.000000003
303.15	.29881	-.0000003578	.000000003
303.15	.40147	-.0000003644	.000000003
303.15	.48414	-.0000003487	.000000003
303.15	.55355	-.0000003233	.000000003
303.15	.69719	-.000000245	.000000003
303.15	.79271	-.0000001797	.000000003
303.15	.88217	-.0000001091	.000000003
303.15	.9437	-.0000000569	.000000003
303.15	.97842	-.0000000272	.000000003
313.15	.04908	-.0000001405	.000000003
313.15	.09952	-.0000002033	.000000003
313.15	.19886	-.0000002851	.000000003
313.15	.29881	-.0000003239	.000000003
313.15	.40147	-.0000003297	.000000003
313.15	.48414	-.0000003157	.000000003
313.15	.55355	-.0000002934	.000000003
313.15	.69719	-.0000002223	.000000003
313.15	.79271	-.0000001633	.000000003
313.15	.88217	-.0000000992	.000000003
313.15	.9437	-.0000000519	.000000003
313.15	.97842	-.0000000257	.000000003

System: 1,2-hexanediol + water; phases: Liquid
Fixed: Pressure, kPa = 101
Property: Excess molar heat capacity, J/K/mol (Liquid); method: Small sample (50 mg) DSC
Temperature, K	Mole fraction of 1,2-hexanediol	Excess molar heat capacity, J/K/mol	uncertainty
283.15	.04991	-.16	.2
283.15	.09952	-2.47	.2
283.15	.19886	-2.23	.2
283.15	.40147	-2.3	.2
283.15	.48414	-1.96	.2
283.15	.55355	-.78	.2
283.15	.69719	-1.03	.2
283.15	.79271	-.6	.2
283.15	.88217	-1.35	.2
283.15	.9437	.04	.2
283.15	.97842	-1.61	.2
293.15	.04991	.35	.2
293.15	.09952	-.23	.2
293.15	.19886	.68	.2
293.15	.29881	1.31	.2
293.15	.40147	.89	.2
293.15	.48414	1.13	.2
293.15	.55355	1.45	.2
293.15	.69719	.9	.2
293.15	.79271	.92	.2
293.15	.88217	.82	.2
293.15	.9437	.68	.2
298.15	.09952	.87	.2
298.15	.19886	1.97	.2
298.15	.29881	2.52	.2
298.15	.40147	2.19	.2
298.15	.48414	2.22	.2
298.15	.55355	2.33	.2
298.15	.69719	1.63	.2
298.15	.79271	1.26	.2
298.15	.88217	.94	.2
298.15	.9437	.47	.2
303.15	.04991	1.74	.2
303.15	.09952	1.95	.2
303.15	.19886	3.16	.2
303.15	.29881	3.76	.2
303.15	.40147	3.35	.2
303.15	.48414	3.15	.2
303.15	.55355	3.16	.2
303.15	.69719	2.27	.2
303.15	.79271	1.52	.2
303.15	.88217	.89	.2
303.15	.9437	.22	.2
313.15	.04991	2.85	.2
313.15	.09952	3.92	.2
313.15	.19886	5.28	.2
313.15	.29881	5.95	.2
313.15	.40147	5.35	.2
313.15	.48414	4.97	.2
313.15	.69719	3.48	.2
313.15	.79271	2.27	.2
313.15	.88217	1.65	.2
313.15	.9437	.62	.2
