Measured thermophysical data. Novel liquid-liquid equilibrium data for six ternary systems containing IL, hydrocarbon and thiophene at 25 C
Source: Fluid Phase Equilib., 2016, 10.1016/j.fluid.2015.12.006
Compound 1: acetone, C3H6O, purity 99%
Compound 2: n-hexane, C6H14, purity 95%
Compound 3: n-heptane, C7H16, purity 99.5%
Compound 4: n-octane, C8H18, purity 99%
Compound 5: n-decane, C10H22, purity 99%
Compound 6: thiophene, C4H4S, purity 99%
Compound 7: 1-hexyl-3-methylimidazolium thiocyanate, C11H19N3S, purity 99%
Compound 8: 1-methyl-3-octylimidazolium thiocyanate, C13H23N3S, purity 99%

System: thiophene + n-hexane + 1-methyl-3-octylimidazolium thiocyanate; phases: Liquid mixture 2, Liquid mixture 1
Property: Mole fraction of n-hexane (Liquid mixture 2); method: Chromatography
Property: Mole fraction of n-hexane (Liquid mixture 1); method: Chromatography
Property: Mole fraction of thiophene (Liquid mixture 1); method: Chromatography
Temperature, K	Pressure, kPa	Mole fraction of thiophene	Mole fraction of n-hexane	uncertainty	Mole fraction of n-hexane	uncertainty	Mole fraction of thiophene	uncertainty
298.15	101	.017	.121	.003	.992	.001	.008	.001
298.15	101	.527	.095	.003	.581	.001	.419	.001
298.15	101	.054	.139	.003	.977	.001	.023	.001
298.15	101	.065	.137	.003	.974	.001	.026	.001
298.15	101	.12	.138	.003	.95	.001	.05	.001
298.15	101	.183	.133	.003	.923	.001	.077	.001
298.15	101	.223	.129	.003	.898	.001	.102	.001
298.15	101	.322	.11	.003	.808	.001	.192	.001
298.15	101	.368	.109	.003	.762	.001	.238	.001
298.15	101	.442	.105	.003	.69	.001	.31	.001

System: thiophene + n-octane + 1-methyl-3-octylimidazolium thiocyanate; phases: Liquid mixture 2, Liquid mixture 1
Property: Mole fraction of n-octane (Liquid mixture 2); method: Chromatography
Property: Mole fraction of n-octane (Liquid mixture 1); method: Chromatography
Property: Mole fraction of thiophene (Liquid mixture 1); method: Chromatography
Temperature, K	Pressure, kPa	Mole fraction of thiophene	Mole fraction of n-octane	uncertainty	Mole fraction of n-octane	uncertainty	Mole fraction of thiophene	uncertainty
298.15	101	.048	.076	.003	.974	.001	.026	.001
298.15	101	.395	.072	.003	.764	.001	.236	.001
298.15	101	.486	.069	.003	.696	.001	.304	.001
298.15	101	.537	.067	.003	.609	.001	.391	.001
298.15	101	.611	.065	.003	.489	.001	.511	.001
298.15	101	.095	.078	.003	.959	.001	.041	.001
298.15	101	.142	.083	.003	.935	.001	.065	.001
298.15	101	.159	.084	.003	.928	.001	.072	.001
298.15	101	.197	.081	.003	.903	.001	.097	.001
298.15	101	.235	.081	.003	.885	.001	.115	.001
298.15	101	.25	.079	.003	.874	.001	.126	.001
298.15	101	.329	.076	.003	.819	.001	.181	.001
298.15	101	.332	.079	.003	.812	.001	.188	.001

System: thiophene + n-decane + 1-methyl-3-octylimidazolium thiocyanate; phases: Liquid mixture 2, Liquid mixture 1
Property: Mole fraction of n-decane (Liquid mixture 2); method: Chromatography
Property: Mole fraction of n-decane (Liquid mixture 1); method: Chromatography
Property: Mole fraction of thiophene (Liquid mixture 1); method: Chromatography
Temperature, K	Pressure, kPa	Mole fraction of thiophene	Mole fraction of n-decane	uncertainty	Mole fraction of n-decane	uncertainty	Mole fraction of thiophene	uncertainty
298.15	101	.022	.05	.003	.988	.001	.012	.001
298.15	101	.557	.038	.003	.539	.001	.461	.001
298.15	101	.597	.039	.003	.477	.001	.523	.001
298.15	101	.053	.047	.003	.971	.001	.029	.001
298.15	101	.09	.049	.003	.952	.001	.048	.001
298.15	101	.144	.043	.003	.91	.001	.09	.001
298.15	101	.194	.045	.003	.889	.001	.111	.001
298.15	101	.263	.042	.003	.835	.001	.165	.001
298.15	101	.346	.042	.003	.776	.001	.224	.001
298.15	101	.427	.041	.003	.695	.001	.305	.001
298.15	101	.495	.04	.003	.63	.001	.37	.001

System: thiophene + n-hexane + 1-hexyl-3-methylimidazolium thiocyanate; phases: Liquid mixture 2, Liquid mixture 1
Property: Mole fraction of n-hexane (Liquid mixture 2); method: Chromatography
Property: Mole fraction of n-hexane (Liquid mixture 1); method: Chromatography
Property: Mole fraction of thiophene (Liquid mixture 1); method: Chromatography
Temperature, K	Pressure, kPa	Mole fraction of thiophene	Mole fraction of n-hexane	uncertainty	Mole fraction of n-hexane	uncertainty	Mole fraction of thiophene	uncertainty
298.15	101	.014	.027	.003	.991	.001	.009	.001
298.15	101	.32	.04	.003	.817	.001	.183	.001
298.15	101	.358	.036	.003	.761	.001	.239	.001
298.15	101	.414	.038	.003	.715	.001	.285	.001
298.15	101	.512	.037	.003	.625	.001	.375	.001
298.15	101	.53	.04	.003	.576	.001	.424	.001
298.15	101	.028	.032	.003	.985	.001	.015	.001
298.15	101	.048	.036	.003	.978	.001	.022	.001
298.15	101	.063	.034	.003	.97	.001	.03	.001
298.15	101	.117	.035	.003	.941	.001	.059	.001
298.15	101	.163	.035	.003	.918	.001	.082	.001
298.15	101	.209	.036	.003	.887	.001	.113	.001
298.15	101	.253	.038	.003	.856	.001	.144	.001
298.15	101	.277	.037	.003	.836	.001	.164	.001

System: thiophene + n-octane + 1-hexyl-3-methylimidazolium thiocyanate; phases: Liquid mixture 2, Liquid mixture 1
Property: Mole fraction of n-octane (Liquid mixture 2); method: Chromatography
Property: Mole fraction of n-octane (Liquid mixture 1); method: Chromatography
Property: Mole fraction of thiophene (Liquid mixture 1); method: Chromatography
Temperature, K	Pressure, kPa	Mole fraction of thiophene	Mole fraction of n-octane	uncertainty	Mole fraction of n-octane	uncertainty	Mole fraction of thiophene	uncertainty
298.15	101	.013	.019	.003	.994	.001	.006	.001
298.15	101	.358	.021	.003	.769	.001	.231	.001
298.15	101	.46	.022	.003	.676	.001	.324	.001
298.15	101	.546	.023	.003	.564	.001	.436	.001
298.15	101	.026	.019	.003	.987	.001	.013	.001
298.15	101	.037	.02	.003	.981	.001	.019	.001
298.15	101	.073	.02	.003	.964	.001	.036	.001
298.15	101	.099	.022	.003	.955	.001	.045	.001
298.15	101	.14	.02	.003	.93	.001	.07	.001
298.15	101	.178	.021	.003	.906	.001	.094	.001
298.15	101	.232	.02	.003	.872	.001	.128	.001
298.15	101	.286	.02	.003	.828	.001	.172	.001

System: thiophene + n-decane + 1-hexyl-3-methylimidazolium thiocyanate; phases: Liquid mixture 2, Liquid mixture 1
Property: Mole fraction of n-decane (Liquid mixture 2); method: Chromatography
Property: Mole fraction of n-decane (Liquid mixture 1); method: Chromatography
Property: Mole fraction of thiophene (Liquid mixture 1); method: Chromatography
Temperature, K	Pressure, kPa	Mole fraction of thiophene	Mole fraction of n-decane	uncertainty	Mole fraction of n-decane	uncertainty	Mole fraction of thiophene	uncertainty
298.15	101	.025	.01	.003	.986	.001	.014	.001
298.15	101	.516	.013	.003	.559	.001	.441	.001
298.15	101	.079	.009	.003	.96	.001	.04	.001
298.15	101	.126	.009	.003	.926	.001	.074	.001
298.15	101	.134	.009	.003	.916	.001	.084	.001
298.15	101	.19	.009	.003	.888	.001	.112	.001
298.15	101	.25	.009	.003	.843	.001	.157	.001
298.15	101	.286	.009	.003	.795	.001	.205	.001
298.15	101	.406	.01	.003	.719	.001	.281	.001
298.15	101	.477	.011	.003	.629	.001	.371	.001
