Measured thermophysical data. Methane and carbon dioxide solubility in 1,2-propylene glycol at temperatures ranging from 303 to 423 K and pressures up to 12 MPa
Source: Fluid Phase Equilib., 2010, 10.1016/j.fluid.2009.12.006
Compound 1: 1,2-propanediol, C3H8O2, purity 99.9%
Compound 2: carbon dioxide, CO2, purity 99.9%
Compound 3: methane, CH4, purity 99.5%

System: 1,2-propanediol + methane; phases: Gas, Liquid
Property: Mole fraction of methane (Gas); method: Synthetic Method
Temperature, K	Pressure, kPa	Mole fraction of methane	uncertainty
303.15	954	.0018	.000018
303.15	2180	.0041	.000041
303.15	3675	.0066	.000066
303.15	5195	.0096	.000096
303.15	6909	.0132	.000132
323.15	1044	.0021	.000021
323.15	2398	.0048	.000048
323.15	4061	.0078	.000078
323.15	5789	.0112	.000112
323.15	7773	.015	.00015
373.15	1268.7	.0033	.000033
373.15	2943.3	.0074	.000074
373.15	5025.7	.0124	.000124
373.15	7274.3	.0176	.000176
373.15	9932.9	.0234	.000234
398.15	1381.2	.004	.00004
398.15	3215.8	.0092	.000092
398.15	5508.2	.0154	.000154
398.15	8016.8	.022	.00022
398.15	11012.9	.0293	.000293
423.15	1493.7	.0049	.000049
423.15	3488.3	.0113	.000113
423.15	5990.7	.019	.00019
423.15	8759.3	.0272	.000272
423.15	12092.9	.0363	.000363

System: 1,2-propanediol + methane; phases: Liquid, Gas
Fixed: Mole fraction of methane = 0
Property: Henry's Law constant (mole fraction scale), kPa of methane (Liquid); method: Chromatography
Temperature, K	Henry's Law constant (mole fraction scale), kPa of methane	uncertainty
303.15	543500	16305
323.15	490400	14712
373.15	376800	11304
398.15	332400	9972
423.15	297600	8928

System: 1,2-propanediol + carbon dioxide; phases: Gas, Liquid
Property: Mole fraction of carbon dioxide (Gas); method: Synthetic Method
Temperature, K	Pressure, kPa	Mole fraction of carbon dioxide	uncertainty
303.15	362.1	.0063	.000063
303.15	666.4	.0184	.000184
303.15	1137.5	.0344	.000344
303.15	1859.7	.0588	.000588
323.15	418.1	.0063	.000063
323.15	812.4	.0181	.000181
323.15	1399.5	.0338	.000338
323.15	2307.7	.0577	.000577
373.15	558.1	.0065	.000065
373.15	1177.4	.0181	.000181
373.15	2054.5	.0339	.000339
373.15	3427.7	.0581	.000581
398.15	628.1	.0068	.000068
398.15	1359.9	.0186	.000186
398.15	2382	.0347	.000347
398.15	3987.7	.0596	.000596
423.15	698.1	.0072	.000072
423.15	1542.4	.0193	.000193
423.15	2709.5	.036	.00036
423.15	4547.7	.0619	.000619

System: 1,2-propanediol + carbon dioxide; phases: Liquid, Gas
Fixed: Mole fraction of carbon dioxide = 0
Property: Henry's Law constant (mole fraction scale), kPa of carbon dioxide (Liquid); method: Chromatography
Temperature, K	Henry's Law constant (mole fraction scale), kPa of carbon dioxide	uncertainty
303.15	50400	1512
323.15	52600	1578
373.15	57600	1728
398.15	60100	1803
423.15	62300	1869
