Measured thermophysical data. Study of the influence of the structure of the alcohol on vapor pressures and  osmotic coefficients of binary mixtures alcohol + 1-hexyl-3-methylimidazolium  bis(trifluoromethylsulfonyl)imide at T = 323.15 K
Source: Fluid Phase Equilib., 2011, 10.1016/j.fluid.2011.09.037
Compound 1: propyl alcohol, C3H8O, purity 99.9%
Compound 2: 2-propanol, C3H8O, purity 99.8%
Compound 3: n-butyl alcohol, C4H10O, purity 99.9%
Compound 4: butan-2-ol, C4H10O, purity 99.5%
Compound 5: pentan-1-ol, C5H12O, purity 99%
Compound 6: 1-hexyl-3-methylimidazolium bis[(trifluoromethyl)sulfonyl]imide, C12H19F6N3O4S2, purity 99%

System: propyl alcohol + 1-hexyl-3-methylimidazolium bis[(trifluoromethyl)sulfonyl]imide; phases: Liquid
Fixed: Pressure, kPa = 101
Fixed: Temperature, K = 323.15
Property: Osmotic coefficient (Liquid); method: vapor pressure osmometer
Molality, mol/kg of propyl alcohol	Osmotic coefficient	uncertainty
.0281	.906	.005
.0539	.866	.005
.081	.797	.005
.1046	.716	.005
.2004	.621	.005
.3018	.523	.005
.4154	.46	.005
.519	.445	.005
.8326	.386	.005
1.1398	.342	.005
1.4322	.316	.005
1.7421	.306	.005
2.2473	.288	.005
2.7385	.265	.005
3.1882	.247	.005

System: 2-propanol + 1-hexyl-3-methylimidazolium bis[(trifluoromethyl)sulfonyl]imide; phases: Liquid
Fixed: Pressure, kPa = 101
Fixed: Temperature, K = 323.15
Property: Osmotic coefficient (Liquid); method: vapor pressure osmometer
Molality, mol/kg of 2-propanol	Osmotic coefficient	uncertainty
.0549	.902	.005
.0805	.876	.005
.0992	.841	.005
.2037	.678	.005
.3092	.572	.005
.4087	.524	.005
.5171	.485	.005
.8189	.429	.005
1.1108	.387	.005
1.4047	.355	.005
1.7122	.321	.005
2.1935	.314	.005
2.6546	.304	.005
3.2074	.294	.005

System: n-butyl alcohol + 1-hexyl-3-methylimidazolium bis[(trifluoromethyl)sulfonyl]imide; phases: Liquid
Fixed: Pressure, kPa = 101
Fixed: Temperature, K = 323.15
Property: Osmotic coefficient (Liquid); method: vapor pressure osmometer
Molality, mol/kg of n-butyl alcohol	Osmotic coefficient	uncertainty
.0466	.746	.005
.0832	.604	.005
.1034	.574	.005
.1973	.461	.005
.2989	.411	.005
.3965	.362	.005
.4907	.343	.005
.6881	.295	.005
.9952	.245	.005
1.3039	.212	.005
1.685	.2	.005
2.1093	.18	.005
2.4788	.172	.005
2.9473	.161	.005
3.2909	.162	.005

System: butan-2-ol + 1-hexyl-3-methylimidazolium bis[(trifluoromethyl)sulfonyl]imide; phases: Liquid
Fixed: Pressure, kPa = 101
Fixed: Temperature, K = 323.15
Property: Osmotic coefficient (Liquid); method: vapor pressure osmometer
Molality, mol/kg of butan-2-ol	Osmotic coefficient	uncertainty
.0478	.834	.005
.076	.769	.005
.1019	.659	.005
.2141	.532	.005
.3112	.443	.005
.4257	.403	.005
.5354	.369	.005
.72	.324	.005
1.0081	.285	.005
1.3109	.251	.005
1.7222	.231	.005
2.1074	.219	.005
2.4768	.214	.005
2.8701	.195	.005

System: pentan-1-ol + 1-hexyl-3-methylimidazolium bis[(trifluoromethyl)sulfonyl]imide; phases: Liquid
Fixed: Pressure, kPa = 101
Fixed: Temperature, K = 323.15
Property: Osmotic coefficient (Liquid); method: vapor pressure osmometer
Molality, mol/kg of pentan-1-ol	Osmotic coefficient	uncertainty
.0502	.467	.005
.0781	.411	.005
.1123	.372	.005
.1977	.313	.005
.3009	.267	.005
.4054	.24	.005
.4903	.214	.005
.8026	.178	.005
1.1098	.163	.005
1.3676	.149	.005
1.7229	.12	.005
2.2109	.095	.005
2.657	.096	.005
3.2312	.091	.005
