Measured thermophysical data. Vapor-liquid equilibria of binary and ternary mixtures containing ethyl lactate and effect of ethyl lactate as entrainer
Source: Fluid Phase Equilib., 2016, 10.1016/j.fluid.2015.12.029
Compound 1: (+-)-ethyl lactate, C5H10O3, purity 99.5%
Compound 2: methyl acetate, C3H6O2, purity 99.9%
Compound 3: methanol, CH4O, purity 99.9%

System: (+-)-ethyl lactate; phases: Liquid
Fixed: Pressure, kPa = 101.325
Property: Mass density, kg/m3 (Liquid); method: Vibrating tube method
Temperature, K	Mass density, kg/m3	uncertainty
298.15	1028.08	.01

System: (+-)-ethyl lactate; phases: Liquid
Fixed: Pressure, kPa = 101.325
Property: Boiling temperature at pressure P, K (Liquid); method: Ebulliometric method (Recirculating still)
Pressure, kPa	Boiling temperature at pressure P, K	uncertainty
40	396.91	
53.33	405.49	
66.66	412.44	
79.99	418.34	
93.32	423.47	
101.3	426.1	

System: methyl acetate; phases: Liquid
Fixed: Pressure, kPa = 101.325
Property: Mass density, kg/m3 (Liquid); method: Vibrating tube method
Temperature, K	Mass density, kg/m3	uncertainty
298.15	927.1	.01

System: methyl acetate; phases: Liquid
Fixed: Pressure, kPa = 101.325
Property: Boiling temperature at pressure P, K (Liquid); method: Ebulliometric method (Recirculating still)
Pressure, kPa	Boiling temperature at pressure P, K	uncertainty
40	305.65	
53.33	312.68	
66.66	318.45	
79.99	323.36	
93.32	327.68	
101.3	330.04	

System: methanol; phases: Liquid
Fixed: Pressure, kPa = 101.325
Property: Mass density, kg/m3 (Liquid); method: Vibrating tube method
Temperature, K	Mass density, kg/m3	uncertainty
298.15	786.56	.01

System: methanol; phases: Liquid
Fixed: Pressure, kPa = 101.325
Property: Boiling temperature at pressure P, K (Liquid); method: Ebulliometric method (Recirculating still)
Pressure, kPa	Boiling temperature at pressure P, K	uncertainty
40	315.49	
53.33	321.98	
66.66	327.23	
79.99	331.66	
93.32	335.51	
101.3	337.6	

System: methanol + methyl acetate; phases: Liquid, Gas
Property: Boiling temperature at pressure P, K (Liquid); method: Ebulliometric method (Recirculating still)
Pressure, kPa	Mole fraction of methyl acetate	Boiling temperature at pressure P, K	uncertainty
40	0	315.49	
40	.0998	310.28	
40	.2001	307.38	
40	.2999	305.58	
40	.4047	304.53	
40	.5001	303.72	
40	.6	303.21	
40	.7003	302.92	
40	.8004	303.05	
40	.8996	304.13	
40	1	305.65	
53.33	0	321.98	
53.33	.0998	316.91	
53.33	.2001	314.07	
53.33	.2999	312.31	
53.33	.4047	311.22	
53.33	.5001	310.41	
53.33	.6	309.98	
53.33	.7003	309.67	
53.33	.8004	309.99	
53.33	.8996	311.05	
53.33	1	312.68	
66.66	0	327.23	
66.66	.0998	322.29	
66.66	.2001	319.52	
66.66	.2999	317.75	
66.66	.4047	316.65	
66.66	.5001	315.9	
66.66	.6	315.52	
66.66	.7003	315.3	
66.66	.8004	315.63	
66.66	.8996	316.68	
66.66	1	318.45	
79.99	0	331.66	
79.99	.0998	326.86	
79.99	.2001	324.09	
79.99	.2999	322.39	
79.99	.4047	321.29	
79.99	.5001	320.6	
79.99	.6	320.28	
79.99	.7003	320.13	
79.99	.8004	320.45	
79.99	.8996	321.48	
79.99	1	323.36	
93.32	0	335.51	
93.32	.0998	330.85	
93.32	.2001	328.08	
93.32	.2999	326.45	
93.32	.4047	325.34	
93.32	.5001	324.74	
93.32	.6	324.45	
93.32	.7003	324.38	
93.32	.8004	324.74	
93.32	.8996	325.68	
93.32	1	327.68	
101.3	0	337.6	
101.3	.0998	333.01	
101.3	.2001	330.25	
101.3	.2999	328.65	
101.3	.4047	327.53	
101.3	.5001	326.96	
101.3	.6	326.67	
101.3	.7003	326.66	
101.3	.8004	327	
101.3	.8996	327.97	
101.3	1	330.04	

System: methyl acetate + (+-)-ethyl lactate; phases: Liquid, Gas
Property: Boiling temperature at pressure P, K (Liquid); method: Ebulliometric method (Recirculating still)
Pressure, kPa	Mole fraction of methyl acetate	Boiling temperature at pressure P, K	uncertainty
40	0	396.91	
40	.1	369.36	
40	.2	353.28	
40	.2998	338.26	
40	.3999	331.08	
40	.5001	325.15	
40	.6	318.77	
40	.7003	314.61	
40	.7998	311.23	
40	.9	308.07	
40	1	305.65	
53.33	0	405.49	
53.33	.1	378.14	
53.33	.2	362.97	
53.33	.2998	347	
53.33	.3999	340.09	
53.33	.5001	332.97	
53.33	.6	326.57	
53.33	.7003	322.46	
53.33	.7998	318.69	
53.33	.9	315.49	
53.33	1	312.68	
66.66	0	412.44	
66.66	.1	385.91	
66.66	.2	370.83	
66.66	.2998	353.64	
66.66	.3999	347.02	
66.66	.5001	339.61	
66.66	.6	333.17	
66.66	.7003	328.93	
66.66	.7998	325.09	
66.66	.9	321.44	
66.66	1	318.45	
79.99	0	418.34	
79.99	.1	392.52	
79.99	.2	376.97	
79.99	.2998	359.83	
79.99	.3999	352.17	
79.99	.5001	345.28	
79.99	.6	338.72	
79.99	.7003	334.43	
79.99	.7998	330.67	
79.99	.9	326.59	
79.99	1	323.36	
93.32	0	423.47	
93.32	.1	397.89	
93.32	.2	382.75	
93.32	.2998	365.19	
93.32	.3999	357.48	
93.32	.5001	350.47	
93.32	.6	343.93	
93.32	.7003	339.28	
93.32	.7998	335.3	
93.32	.9	331.13	
93.32	1	327.68	
101.3	0	426.1	
101.3	.1	401.22	
101.3	.2	386	
101.3	.2998	368.56	
101.3	.3999	360.37	
101.3	.5001	353	
101.3	.6	346.56	
101.3	.7003	341.92	
101.3	.7998	337.88	
101.3	.9	333.59	
101.3	1	330.04	

System: methanol + (+-)-ethyl lactate; phases: Liquid, Gas
Property: Boiling temperature at pressure P, K (Liquid); method: Ebulliometric method (Recirculating still)
Pressure, kPa	Mole fraction of methanol	Boiling temperature at pressure P, K	uncertainty
40	0	396.91	
40	.1055	372.42	
40	.2097	355.98	
40	.3128	344.84	
40	.4147	336.7	
40	.5138	331.33	
40	.6145	327.05	
40	.7125	323.14	
40	.8095	320.18	
40	.9054	317.57	
40	1	315.49	
53.33	0	405.49	
53.33	.1055	380.91	
53.33	.2097	364.1	
53.33	.3128	353.04	
53.33	.4147	344.04	
53.33	.5138	339.3	
53.33	.6145	333.9	
53.33	.7125	330	
53.33	.8095	327.13	
53.33	.9054	324.37	
53.33	1	321.98	
66.66	0	412.44	
66.66	.1055	387.65	
66.66	.2097	370.86	
66.66	.3128	361.01	
66.66	.4147	349.97	
66.66	.5138	344.07	
66.66	.6145	339.52	
66.66	.7125	335.59	
66.66	.8095	332.67	
66.66	.9054	330.09	
66.66	1	327.23	
79.99	0	418.34	
79.99	.1055	394.5	
79.99	.2097	374.4	
79.99	.3128	366.29	
79.99	.4147	355.27	
79.99	.5138	349.14	
79.99	.6145	344.31	
79.99	.7125	340.35	
79.99	.8095	337.56	
79.99	.9054	334.95	
79.99	1	331.66	
93.32	0	423.47	
93.32	.1055	401.49	
93.32	.2097	379	
93.32	.3128	371.03	
93.32	.4147	359.94	
93.32	.5138	353.53	
93.32	.6145	348.49	
93.32	.7125	344.59	
93.32	.8095	341.76	
93.32	.9054	339.4	
93.32	1	335.51	
101.3	0	426.1	
101.3	.1055	405.09	
101.3	.2097	382.88	
101.3	.3128	373.81	
101.3	.4147	362.22	
101.3	.5138	356.01	
101.3	.6145	350.82	
101.3	.7125	346.88	
101.3	.8095	344.04	
101.3	.9054	341.63	
101.3	1	337.6	
