Measured thermophysical data. Liquid-liquid extraction of toluene from n-heptane by {[emim][TCM] + [emim][DCA]} binary ionic liquid mixtures
Source: Fluid Phase Equilib., 2014, 10.1016/j.fluid.2013.12.008
Compound 1: 1-ethyl-3-methylimidazolium tricyanomethanide, C10H11N5, purity 98%
Compound 2: 1-ethyl-3-methylimidazolium dicyanamide, C8H11N5, purity 98%
Compound 3: toluene, C7H8, purity 99.5%
Compound 4: n-heptane, C7H16, purity 99.7%

System: 1-ethyl-3-methylimidazolium tricyanomethanide; phases: Liquid
Property: Mass density, kg/m3 (Liquid); method: Vibrating tube method
Temperature, K	Pressure, kPa	Mass density, kg/m3	uncertainty
293.15	101	1085.2	.5
303.15	101	1078.1	.5
313.15	101	1071.1	.5
323.15	101	1064.1	.5
333.15	101	1057.2	.5
343.15	101	1050.4	.5
353.15	101	1043.6	.5

System: 1-ethyl-3-methylimidazolium tricyanomethanide; phases: Liquid
Property: Viscosity, Pa*s (Liquid); method: Falling or rolling sphere viscometry
Temperature, K	Pressure, kPa	Viscosity, Pa*s	uncertainty
343.15	101	.00491	.0000491
293.15	101	.01772	.0001772
303.15	101	.01288	.0001288
313.15	101	.0098	.000098
323.15	101	.00773	.0000773
333.15	101	.00593	.0000593
353.15	101	.00415	.0000415

System: 1-ethyl-3-methylimidazolium dicyanamide; phases: Liquid
Property: Mass density, kg/m3 (Liquid); method: Vibrating tube method
Temperature, K	Pressure, kPa	Mass density, kg/m3	uncertainty
293.15	101	1104.6	.5
303.15	101	1098	.5
313.15	101	1091.4	.5
323.15	101	1084.9	.5
333.15	101	1078.5	.5
343.15	101	1072.1	.5
353.15	101	1065.8	.5

System: 1-ethyl-3-methylimidazolium dicyanamide; phases: Liquid
Property: Viscosity, Pa*s (Liquid); method: Falling or rolling sphere viscometry
Temperature, K	Pressure, kPa	Viscosity, Pa*s	uncertainty
293.15	101	.01754	.0001754
303.15	101	.01311	.0001311
313.15	101	.01017	.0001017
323.15	101	.00813	.0000813
333.15	101	.00666	.0000666
343.15	101	.00558	.0000558
353.15	101	.00475	.0000475

System: toluene + n-heptane + 1-ethyl-3-methylimidazolium tricyanomethanide; phases: Liquid mixture 1, Liquid mixture 2
Property: Mole fraction of toluene (Liquid mixture 1); method: Chromatography
Property: Mole fraction of n-heptane (Liquid mixture 2); method: Chromatography
Property: Mole fraction of toluene (Liquid mixture 2); method: Chromatography
Temperature, K	Pressure, kPa	Mole fraction of n-heptane	Mole fraction of toluene	uncertainty	Mole fraction of n-heptane	uncertainty	Mole fraction of toluene	uncertainty
313.2	101.325	.9247	.0753	.0007	.0094	.001	.0332	.0019

System: toluene + n-heptane + 1-ethyl-3-methylimidazolium dicyanamide; phases: Liquid mixture 1, Liquid mixture 2
Property: Mole fraction of toluene (Liquid mixture 1); method: Chromatography
Property: Mole fraction of n-heptane (Liquid mixture 2); method: Chromatography
Property: Mole fraction of toluene (Liquid mixture 2); method: Chromatography
Temperature, K	Pressure, kPa	Mole fraction of n-heptane	Mole fraction of toluene	uncertainty	Mole fraction of n-heptane	uncertainty	Mole fraction of toluene	uncertainty
313.2	101.325	.9158	.0842	.0007	.0035	.001	.023	.0019

System: 1-ethyl-3-methylimidazolium dicyanamide + 1-ethyl-3-methylimidazolium tricyanomethanide; phases: Liquid
Fixed: Pressure, kPa = 101
Property: Mass density, kg/m3 (Liquid); method: Vibrating tube method
Temperature, K	Mole fraction of 1-ethyl-3-methylimidazolium tricyanomethanide	Mass density, kg/m3	uncertainty
293.15	0	1104.6	.5
293.15	.2	1099.9	.5
293.15	.4	1095.8	.5
293.15	.6	1091.9	.5
293.15	.8	1088.4	.5
293.15	1	1085.2	.5
303.15	0	1098	.5
303.15	.2	1093.2	.5
303.15	.4	1088.9	.5
303.15	.6	1085	.5
303.15	.8	1081.4	.5
303.15	1	1078.1	.5
313.15	0	1091.4	.5
313.15	.2	1086.5	.5
313.15	.4	1082.2	.5
313.15	.6	1078.1	.5
313.15	.8	1074.5	.5
313.15	1	1071.1	.5
323.15	0	1084.9	.5
323.15	.2	1079.9	.5
323.15	.4	1075.5	.5
323.15	.6	1071.3	.5
323.15	.8	1067.6	.5
323.15	1	1064.1	.5
333.15	0	1078.5	.5
333.15	.2	1073.4	.5
333.15	.4	1068.8	.5
333.15	.6	1064.6	.5
333.15	.8	1060.8	.5
333.15	1	1057.2	.5
343.15	0	1072.1	.5
343.15	.2	1066.9	.5
343.15	.4	1062.3	.5
343.15	.6	1057.9	.5
343.15	.8	1054.1	.5
343.15	1	1050.4	.5
353.15	0	1065.8	.5
353.15	.2	1060.5	.5
353.15	.4	1055.7	.5
353.15	.6	1051.3	.5
353.15	.8	1047.4	.5
353.15	1	1043.6	.5

System: 1-ethyl-3-methylimidazolium dicyanamide + 1-ethyl-3-methylimidazolium tricyanomethanide; phases: Liquid
Fixed: Pressure, kPa = 101
Property: Viscosity, Pa*s (Liquid); method: Falling or rolling sphere viscometry
Temperature, K	Mole fraction of 1-ethyl-3-methylimidazolium tricyanomethanide	Viscosity, Pa*s	uncertainty
293.15	0	.01754	.0001754
303.15	0	.01311	.0001311
313.15	0	.01017	.0001017
323.15	0	.00813	.0000813
333.15	0	.00666	.0000666
343.15	0	.00558	.0000558
353.15	0	.00475	.0000475
303.15	.2	.01305	.0001305
313.15	.2	.01012	.0001012
323.15	.2	.00792	.0000792
333.15	.2	.00626	.0000626
343.15	.2	.00523	.0000523
293.15	.2	.01755	.0001755
353.15	.2	.00444	.0000444
313.15	.4	.01005	.0001005
323.15	.4	.00784	.0000784
333.15	.4	.00622	.0000622
343.15	.4	.00521	.0000521
293.15	.4	.01759	.0001759
303.15	.4	.01302	.0001302
353.15	.4	.00442	.0000442
323.15	.6	.0078	.000078
333.15	.6	.00619	.0000619
343.15	.6	.0052	.000052
293.15	.6	.0176	.000176
303.15	.6	.01301	.0001301
313.15	.6	.01002	.0001002
353.15	.6	.00438	.0000438
333.15	.8	.00615	.0000615
343.15	.8	.0051	.000051
293.15	.8	.01764	.0001764
303.15	.8	.01289	.0001289
313.15	.8	.00989	.0000989
323.15	.8	.00777	.0000777
353.15	.8	.00432	.0000432
343.15	1	.00491	.0000491
293.15	1	.01772	.0001772
303.15	1	.01288	.0001288
313.15	1	.0098	.000098
323.15	1	.00773	.0000773
333.15	1	.00593	.0000593
353.15	1	.00415	.0000415

System: n-heptane + 1-ethyl-3-methylimidazolium dicyanamide + 1-ethyl-3-methylimidazolium tricyanomethanide; phases: Liquid mixture 2, Liquid mixture 1
Property: Mole fraction of 1-ethyl-3-methylimidazolium tricyanomethanide (Liquid mixture 2); method: Chromatography
Property: Mole fraction of n-heptane (Liquid mixture 1); method: Chromatography
Property: Mole fraction of 1-ethyl-3-methylimidazolium tricyanomethanide (Liquid mixture 1); method: Chromatography
Temperature, K	Pressure, kPa	Mole fraction of n-heptane	Mole fraction of 1-ethyl-3-methylimidazolium tricyanomethanide	uncertainty	Mole fraction of n-heptane	uncertainty	Mole fraction of 1-ethyl-3-methylimidazolium tricyanomethanide	uncertainty
313.2	101.325	.007	.7944	.0019	1	.0007	0	.0007

System: toluene + 1-ethyl-3-methylimidazolium dicyanamide + 1-ethyl-3-methylimidazolium tricyanomethanide; phases: Liquid mixture 1, Liquid mixture 2
Property: Mole fraction of 1-ethyl-3-methylimidazolium tricyanomethanide (Liquid mixture 1); method: Chromatography
Property: Mole fraction of toluene (Liquid mixture 2); method: Chromatography
Property: Mole fraction of 1-ethyl-3-methylimidazolium tricyanomethanide (Liquid mixture 2); method: Chromatography
Temperature, K	Pressure, kPa	Mole fraction of toluene	Mole fraction of 1-ethyl-3-methylimidazolium tricyanomethanide	uncertainty	Mole fraction of toluene	uncertainty	Mole fraction of 1-ethyl-3-methylimidazolium tricyanomethanide	uncertainty
313.2	101.325	1	0	.0007	.6439	.0019	.2849	.0019
