Measured thermophysical data. Phase equilibrium properties of the ternary mixture dibutyl ether + toluene + heptane at 313.15 K
Source: Fluid Phase Equilib., 2012, 10.1016/j.fluid.2012.01.008
Compound 1: 5-oxanonane, C8H18O, purity 99.5%
Compound 2: toluene, C7H8, purity 99.7%
Compound 3: heptane, C7H16, purity 99.5%

System: 5-oxanonane; phases: Liquid, Gas
Property: Vapor or sublimation pressure, kPa (Liquid); method: Closed cell (Static) method
Temperature, K	Vapor or sublimation pressure, kPa	uncertainty
313.15	2.068	.005

System: toluene; phases: Liquid, Gas
Property: Vapor or sublimation pressure, kPa (Liquid); method: Closed cell (Static) method
Temperature, K	Vapor or sublimation pressure, kPa	uncertainty
313.15	7.886	.005

System: heptane; phases: Liquid, Gas
Property: Vapor or sublimation pressure, kPa (Liquid); method: Closed cell (Static) method
Temperature, K	Vapor or sublimation pressure, kPa	uncertainty
313.15	12.337	.005

System: toluene + heptane; phases: Gas, Liquid
Property: Vapor or sublimation pressure, kPa (Gas); method: Closed cell (Static) method
Mole fraction of toluene	Temperature, K	Vapor or sublimation pressure, kPa	uncertainty
0	313.15	12.329	.005
.051	313.15	12.277	.005
.1019	313.15	12.206	.005
.1508	313.15	12.125	.005
.1978	313.15	12.032	.005
.2476	313.15	11.915	.005
.2973	313.15	11.802	.005
.3508	313.15	11.657	.005
.4017	313.15	11.503	.005
.4458	313.15	11.364	.005
.4488	313.15	11.348	.005
.4987	313.15	11.179	.005
.4988	313.15	11.179	.005
.5449	313.15	10.999	.005
.5453	313.15	10.999	.005
.5979	313.15	10.775	.005
.5982	313.15	10.782	.005
.6453	313.15	10.563	.005
.6924	313.15	10.326	.005
.7469	313.15	10.025	.005
.7959	313.15	9.716	.005
.8428	313.15	9.373	.005
.8956	313.15	8.96	.005
.9455	313.15	8.491	.005
1	313.15	7.893	.005

System: toluene + heptane; phases: Gas, Liquid
Property: Mole fraction of toluene (Gas); method: Calculated from Margules model
Mole fraction of toluene	Temperature, K	Mole fraction of toluene	uncertainty
0	313.15	0	.001
.051	313.15	.046	.001
.1019	313.15	.0899	.001
.1508	313.15	.1303	.001
.1978	313.15	.168	.001
.2476	313.15	.207	.001
.2973	313.15	.2451	.001
.3508	313.15	.2855	.001
.4017	313.15	.3237	.001
.4458	313.15	.3569	.001
.4488	313.15	.3592	.001
.4987	313.15	.3971	.001
.4988	313.15	.3972	.001
.5449	313.15	.433	.001
.5453	313.15	.4334	.001
.5979	313.15	.4756	.001
.5982	313.15	.4758	.001
.6453	313.15	.5154	.001
.6924	313.15	.5574	.001
.7469	313.15	.6101	.001
.7959	313.15	.6627	.001
.8428	313.15	.7197	.001
.8956	313.15	.7945	.001
.9455	313.15	.8804	.001
1	313.15	1	.001

System: toluene + heptane + 5-oxanonane; phases: Liquid, Gas
Property: Mole fraction of toluene (Liquid); method: Volumetric Displacement
Property: Mole fraction of 5-oxanonane (Gas); method: Volumetric Displacement
Property: Mole fraction of toluene (Gas); method: Volumetric Displacement
Temperature, K	Pressure, kPa	Mole fraction of 5-oxanonane	Mole fraction of toluene	uncertainty	Mole fraction of 5-oxanonane	uncertainty	Mole fraction of toluene	uncertainty
313.15	2.063	1	0	.0005	1	.001	0	.001
313.15	9.253	.1961	.4502	.0005	.0432	.001	.4192	.001
313.15	9.562	.1818	.4175	.0005	.039	.001	.3825	.001
313.15	9.869	.1666	.3825	.0005	.0349	.001	.346	.001
313.15	10.121	.1532	.3519	.0005	.0315	.001	.3158	.001
313.15	2.071	1	0	.0005	1	.001	0	.001
313.15	4.042	.6647	.3353	.0005	.3397	.001	.6603	.001
313.15	4.391	.6442	.325	.0005	.3038	.001	.5961	.001
313.15	4.708	.6253	.3154	.0005	.2752	.001	.5449	.001
313.15	5.216	.5934	.2994	.0005	.2352	.001	.4727	.001
313.15	5.668	.5651	.2851	.0005	.2062	.001	.4202	.001
313.15	6.171	.3034	.6966	.0005	.1046	.001	.8954	.001
313.15	6.218	.5278	.2663	.0005	.1749	.001	.363	.001
313.15	6.625	.4995	.252	.0005	.1552	.001	.3266	.001
313.15	7.495	.4354	.2197	.0005	.1197	.001	.2597	.001
313.15	7.758	.4154	.2096	.0005	.1105	.001	.2421	.001
313.15	7.991	.397	.2003	.0005	.1028	.001	.227	.001
313.15	8.392	.3653	.1843	.0005	.0906	.001	.2028	.001
313.15	8.783	.3331	.1681	.0005	.0794	.001	.1804	.001
313.15	12.325	0	0	.0005	0	.001	0	.001
313.15	5.45	.6907	0	.0005	.2679	.001	0	.001
313.15	5.548	.6721	.0269	.0005	.2541	.001	.0433	.001
313.15	6.62	.2914	.6691	.0005	.0928	.001	.8093	.001
313.15	5.629	.6577	.0478	.0005	.2441	.001	.0754	.001
313.15	5.834	.6203	.102	.0005	.2201	.001	.1528	.001
313.15	6.004	.5876	.1493	.0005	.2013	.001	.2147	.001
313.15	6.202	.5504	.2031	.0005	.1818	.001	.28	.001
313.15	6.372	.516	.253	.0005	.1654	.001	.3363	.001
313.15	6.536	.4827	.3012	.0005	.1507	.001	.3876	.001
313.15	6.701	.4455	.355	.0005	.1354	.001	.4418	.001
313.15	6.853	.411	.4049	.0005	.1223	.001	.4895	.001
313.15	6.994	.3771	.4541	.0005	.11	.001	.5347	.001
313.15	7.137	.3411	.5061	.0005	.0978	.001	.5808	.001
313.15	6.858	.2843	.6529	.0005	.0867	.001	.7648	.001
313.15	12.331	0	0	.0005	0	.001	0	.001
313.15	9.501	.2887	0	.0005	.0667	.001	0	.001
313.15	9.573	.2802	.0295	.0005	.0639	.001	.0324	.001
313.15	9.601	.2724	.0565	.0005	.0614	.001	.0607	.001
313.15	9.645	.2594	.1017	.0005	.0576	.001	.1058	.001
313.15	9.676	.2454	.1499	.0005	.0538	.001	.1512	.001
313.15	9.696	.2318	.1972	.0005	.0502	.001	.1937	.001
313.15	9.711	.2163	.2509	.0005	.0464	.001	.2402	.001
313.15	9.707	.2016	.3018	.0005	.0429	.001	.283	.001
313.15	9.696	.1882	.3483	.0005	.0399	.001	.3213	.001
313.15	7.267	.2717	.6239	.0005	.0774	.001	.6946	.001
313.15	9.671	.1734	.3993	.0005	.0367	.001	.3631	.001
313.15	9.633	.1595	.4475	.0005	.0337	.001	.4025	.001
313.15	9.585	.1439	.5014	.0005	.0305	.001	.4468	.001
313.15	12.316	0	0	.0005	0	.001	0	.001
313.15	10.195	0	.7111	.0005	0	.001	.5748	.001
313.15	10	.0233	.6945	.0005	.0047	.001	.572	.001
313.15	9.765	.0519	.6742	.0005	.0108	.001	.5685	.001
313.15	9.357	.1015	.6389	.0005	.0219	.001	.5623	.001
313.15	8.953	.1498	.6046	.0005	.0338	.001	.556	.001
313.15	8.544	.1985	.5699	.0005	.0469	.001	.5493	.001
313.15	7.776	.2547	.5849	.0005	.0671	.001	.6152	.001
313.15	8.089	.252	.5319	.0005	.063	.001	.5412	.001
313.15	7.674	.3035	.4953	.0005	.0803	.001	.5326	.001
313.15	7.305	.3476	.4639	.0005	.0968	.001	.5242	.001
313.15	6.889	.3981	.428	.0005	.118	.001	.5135	.001
313.15	6.485	.4516	.3899	.0005	.1436	.001	.5002	.001
313.15	6.044	.5007	.355	.0005	.1704	.001	.4861	.001
313.15	7.9	0	1	.0005	0	.001	1	.001
313.15	11.781	0	.31	.0005	0	.001	.2547	.001
313.15	11.513	.0288	.3011	.0005	.0055	.001	.2519	.001
313.15	11.282	.0531	.2936	.0005	.0102	.001	.2495	.001
313.15	8.154	.2411	.5536	.0005	.0603	.001	.5607	.001
313.15	10.809	.1029	.2781	.0005	.0204	.001	.2446	.001
313.15	10.335	.1523	.2628	.0005	.0311	.001	.2396	.001
313.15	9.826	.2045	.2467	.0005	.0434	.001	.2342	.001
313.15	9.375	.2518	.232	.0005	.0557	.001	.2292	.001
313.15	8.872	.3034	.216	.0005	.0705	.001	.2234	.001
313.15	8.39	.3528	.2007	.0005	.0864	.001	.2176	.001
313.15	7.93	.4006	.1858	.0005	.1038	.001	.2116	.001
313.15	7.422	.4523	.1698	.0005	.1252	.001	.2047	.001
313.15	6.952	.4998	.1551	.0005	.1477	.001	.1978	.001
313.15	8.526	.2266	.5204	.0005	.054	.001	.5098	.001
313.15	8.863	.2128	.4887	.0005	.0488	.001	.4666	.001
