Measured thermophysical data. Measurement and correlation of solid-liquid equilibria of Irganox 1010 with n-hexane
Source: Fluid Phase Equilib., 2009, 10.1016/j.fluid.2009.09.013
Compound 1: hexane, C6H14, purity 99.5%
Compound 2: pentaerythritol tetra(3,5-di-tert-butyl-4-hydroxyhydrocinnamate), C73H108O12, purity 98%

System: pentaerythritol tetra(3,5-di-tert-butyl-4-hydroxyhydrocinnamate); phases: Crystal, Liquid, Air at 1 atmosphere
Property: Normal melting temperature, K (Crystal); method: DSC/DTA
Normal melting temperature, K	uncertainty
385.75	

System: pentaerythritol tetra(3,5-di-tert-butyl-4-hydroxyhydrocinnamate); phases: Metastable crystal, Liquid, Air at 1 atmosphere
Property: Molar enthalpy of transition or fusion, kJ/mol (Metastable crystal); method: DSC/DTA
Molar enthalpy of transition or fusion, kJ/mol	uncertainty
65.95	

System: hexane + pentaerythritol tetra(3,5-di-tert-butyl-4-hydroxyhydrocinnamate); phases: Liquid, Crystal
Fixed: Pressure, kPa = 101
Property: Solid-liquid equilibrium temperature, K (Liquid); method: static method with UV spectrometry
Mole fraction of pentaerythritol tetra(3,5-di-tert-butyl-4-hydroxyhydrocinnamate)	Solid-liquid equilibrium temperature, K	uncertainty
.00003056	283.15	.05
.00005515	288.15	.05
.00009078	293.15	.05
.0001504	298.15	.05
.0002639	303.15	.05
.0004538	308.15	.05
.0007682	313.15	.05
.00129	318.15	.05
.002108	323.15	.05
.003703	328.15	.05
.006806	333.15	.05
.01241	338.15	.05
