Measured thermophysical data. Measurement and correlation of the solubility of maleic anhydride in different organic solvents
Source: Fluid Phase Equilib., 2014, 10.1016/j.fluid.2014.01.008
Compound 1: maleic anhydride, C4H2O3, purity 99%
Compound 2: DMF, C3H7NO, purity 99.5%
Compound 3: methanol, CH4O, purity 99.7%
Compound 4: acetic acid, C2H4O2, purity 99.2%
Compound 5: acetonitrile, C2H3N, purity 99.5%
Compound 6: acetone, C3H6O, purity 99%
Compound 7: ethyl acetate, C4H8O2, purity 99.5%
Compound 8: 2-propanol, C3H8O, purity 99.7%
Compound 9: n-butyl alcohol, C4H10O, purity 99%

System: maleic anhydride; phases: Crystal, Liquid, Air at 1 atmosphere
Property: Normal melting temperature, K (Crystal); method: DSC/DTA
Normal melting temperature, K	uncertainty
325.95	

System: DMF + maleic anhydride; phases: Liquid, Crystal
Fixed: Pressure, kPa = 101
Property: Mole fraction of maleic anhydride (Liquid); method: gravimetric
Temperature, K	Mole fraction of maleic anhydride	uncertainty
278.15	.02966	.0001
283.15	.03717	.0001
288.15	.04656	.0001
293.15	.05839	.0001
298.15	.07074	.0001
303.15	.08697	.0001
308.15	.10429	.0001
313.15	.12494	.0001
318.15	.14958	.0001
323.15	.17639	.0001

System: methanol + maleic anhydride; phases: Liquid, Crystal
Fixed: Pressure, kPa = 101
Property: Mole fraction of maleic anhydride (Liquid); method: gravimetric
Temperature, K	Mole fraction of maleic anhydride	uncertainty
278.15	.02113	.0001
283.15	.02822	.0001
288.15	.03593	.0001
293.15	.04651	.0001
298.15	.05816	.0001
303.15	.07188	.0001
308.15	.08859	.0001
313.15	.10866	.0001
318.15	.13199	.0001
323.15	.15877	.0001

System: acetic acid + maleic anhydride; phases: Liquid, Crystal
Fixed: Pressure, kPa = 101
Property: Mole fraction of maleic anhydride (Liquid); method: gravimetric
Temperature, K	Mole fraction of maleic anhydride	uncertainty
278.15	.01563	.0001
283.15	.02164	.0001
288.15	.02811	.0001
293.15	.03695	.0001
298.15	.04716	.0001
303.15	.06047	.0001
308.15	.0767	.0001
313.15	.09622	.0001
318.15	.11896	.0001
323.15	.14648	.0001

System: acetonitrile + maleic anhydride; phases: Liquid, Crystal
Fixed: Pressure, kPa = 101
Property: Mole fraction of maleic anhydride (Liquid); method: gravimetric
Temperature, K	Mole fraction of maleic anhydride	uncertainty
278.15	.01202	.0001
283.15	.01734	.0001
288.15	.02323	.0001
293.15	.03073	.0001
298.15	.04075	.0001
303.15	.0526	.0001
308.15	.06819	.0001
313.15	.08733	.0001
318.15	.11134	.0001
323.15	.13901	.0001

System: acetone + maleic anhydride; phases: Liquid, Crystal
Fixed: Pressure, kPa = 101
Property: Mole fraction of maleic anhydride (Liquid); method: gravimetric
Temperature, K	Mole fraction of maleic anhydride	uncertainty
278.15	.00999	.0001
283.15	.01364	.0001
288.15	.01905	.0001
293.15	.0264	.0001
298.15	.03358	.0001
303.15	.04528	.0001
308.15	.05986	.0001
313.15	.07678	.0001
318.15	.09767	.0001
323.15	.1242	.0001

System: maleic anhydride + ethyl acetate; phases: Liquid, Crystal
Fixed: Pressure, kPa = 101
Property: Mole fraction of maleic anhydride (Liquid); method: gravimetric
Temperature, K	Mole fraction of maleic anhydride	uncertainty
278.15	.00906	.0001
283.15	.01247	.0001
288.15	.01696	.0001
293.15	.02193	.0001
298.15	.03031	.0001
303.15	.03985	.0001
308.15	.05182	.0001
313.15	.06651	.0001
318.15	.08568	.0001
323.15	.10658	.0001

System: 2-propanol + maleic anhydride; phases: Liquid, Crystal
Fixed: Pressure, kPa = 101
Property: Mole fraction of maleic anhydride (Liquid); method: gravimetric
Temperature, K	Mole fraction of maleic anhydride	uncertainty
278.15	.00617	.0001
283.15	.00942	.0001
288.15	.01302	.0001
293.15	.01778	.0001
298.15	.02411	.0001
303.15	.03205	.0001
308.15	.04304	.0001
313.15	.0552	.0001
318.15	.07123	.0001
323.15	.09087	.0001

System: n-butyl alcohol + maleic anhydride; phases: Liquid, Crystal
Fixed: Pressure, kPa = 101
Property: Mole fraction of maleic anhydride (Liquid); method: gravimetric
Temperature, K	Mole fraction of maleic anhydride	uncertainty
278.15	.00359	.0001
283.15	.00539	.0001
288.15	.00796	.0001
293.15	.01159	.0001
298.15	.01682	.0001
303.15	.02359	.0001
308.15	.03297	.0001
313.15	.04546	.0001
318.15	.0618	.0001
323.15	.08281	.0001
