Measured thermophysical data. Phase behavior for carbon dioxide/tetraalkoxysilane systems
Source: Fluid Phase Equilib., 2012, 10.1016/j.fluid.2012.02.018
Compound 1: carbon dioxide, CO2, purity 99.99%
Compound 2: silicon tetramethoxide, C4H12O4Si, purity 98%
Compound 3: tetraethoxysilane, C8H20O4Si, purity 96%
Compound 4: methanol, CH4O, purity 99.8%

System: carbon dioxide + silicon tetramethoxide; phases: Liquid, Gas
Property: Vapor or sublimation pressure, kPa (Liquid); method: synthetic
Temperature, K	Mole fraction of carbon dioxide	Vapor or sublimation pressure, kPa	uncertainty
313.15	.15	970	22
313.15	.262	1630	22
313.15	.35	2520	22
313.15	.436	3090	22
313.15	.548	4200	22
313.15	.651	5060	22
313.15	.748	5900	22
313.15	.84	6920	22
323.15	.15	1140	22
323.15	.262	1890	22
323.15	.35	2890	22
323.15	.436	3700	22
323.15	.548	4890	22
323.15	.651	5860	22
323.15	.748	6910	22
323.15	.84	8150	22
333.15	.15	1300	22
333.15	.262	2240	22
333.15	.35	3230	22
333.15	.436	4350	22
333.15	.548	5560	22
333.15	.651	6790	22
333.15	.748	7970	22
333.15	.84	9410	22
343.15	.15	1500	22
343.15	.262	2470	22
343.15	.35	3640	22
343.15	.434	4730	22
343.15	.548	6350	22
343.15	.651	7640	22
343.15	.75	9110	22
343.15	.84	10690	22
353.15	.15	1650	22
353.15	.262	2800	22
353.15	.35	4050	22
353.15	.434	5300	22
353.15	.548	7100	22
353.15	.651	8500	22
353.15	.75	10220	22
353.15	.85	12170	22
363.15	.15	1830	22
363.15	.262	3060	22
363.15	.35	4520	22
363.15	.434	5900	22
363.15	.548	7730	22
363.15	.65	9550	22
363.15	.752	10900	22
363.15	.85	13360	22
373.15	.15	2000	22
373.15	.262	3430	22
373.15	.35	4940	22
373.15	.434	6530	22
373.15	.548	8400	22
373.15	.65	10460	22
373.15	.752	12050	22
383.15	.15	2200	22
383.15	.262	3740	22
383.15	.35	5380	22
383.15	.434	7070	22
383.15	.552	9090	22
383.15	.65	11270	22
383.15	.752	12880	22
393.15	.15	2400	22
393.15	.262	4030	22
393.15	.35	5810	22
393.15	.434	7520	22
393.15	.552	9720	22
393.15	.65	12020	22
393.15	.752	13710	22

System: carbon dioxide + silicon tetramethoxide; phases: Gas, Liquid
Property: Vapor or sublimation pressure, kPa (Gas); method: Flow
Temperature, K	Mole fraction of carbon dioxide	Vapor or sublimation pressure, kPa	uncertainty
313.15	.9997	3300	22
353.15	.9895	3000	22
353.15	.9925	3500	22
353.15	.9959	5300	22
353.15	.9952	6200	22
353.15	.9942	7380	22
353.15	.9848	10200	22
393.15	.9672	3950	22
393.15	.9671	5300	22
393.15	.9699	5350	22
393.15	.9702	6300	22
393.15	.9731	6500	22
393.15	.9716	8800	22
393.15	.9709	9500	22
393.15	.9611	11500	22
393.15	.961	12400	22

System: tetraethoxysilane + carbon dioxide; phases: Liquid, Gas
Property: Vapor or sublimation pressure, kPa (Liquid); method: Synthetic
Temperature, K	Mole fraction of carbon dioxide	Vapor or sublimation pressure, kPa	uncertainty
313.15	.249	1890	22
313.15	.332	2440	22
313.15	.45	3320	22
313.15	.55	4340	22
313.15	.65	5150	22
313.15	.75	6160	22
323.15	.249	2150	22
323.15	.332	2750	22
323.15	.45	3790	22
323.15	.55	4950	22
323.15	.65	6030	22
323.15	.75	7200	22
333.15	.249	2440	22
333.15	.332	3090	22
333.15	.45	4260	22
333.15	.55	5590	22
333.15	.65	6890	22
333.15	.75	8200	22
343.15	.249	2710	22
343.15	.332	3450	22
343.15	.45	4680	22
343.15	.55	6270	22
343.15	.65	7790	22
343.15	.75	9190	22
353.15	.249	2990	22
353.15	.332	3780	22
353.15	.45	5250	22
353.15	.55	6920	22
353.15	.65	8730	22
353.15	.75	10250	22
363.15	.249	3270	22
363.15	.332	4160	22
363.15	.45	5730	22
363.15	.55	7560	22
363.15	.65	9560	22
363.15	.75	11090	22
373.15	.249	3520	22
373.15	.332	4500	22
373.15	.45	6200	22
373.15	.55	8040	22
373.15	.65	10400	22
373.15	.75	12260	22

System: methanol + carbon dioxide; phases: Liquid, Gas
Fixed: Temperature, K = 323.15
Property: Vapor or sublimation pressure, kPa (Liquid); method: Synthetic
Mole fraction of carbon dioxide	Vapor or sublimation pressure, kPa	uncertainty
.031	990	22
.078	1800	22
.114	2450	22
.15	3440	22
.204	4330	22
.255	5330	22
.307	6160	22
.357	6960	22
.406	7570	22
.449	8010	22
.502	8440	22
.599	9290	22
.697	9520	22
.796	9790	22

System: methanol + carbon dioxide; phases: Gas, Liquid
Fixed: Temperature, K = 323.15
Property: Vapor or sublimation pressure, kPa (Gas); method: Flow
Mole fraction of carbon dioxide	Vapor or sublimation pressure, kPa	uncertainty
.9577	8400	22
.9746	5150	22
.9728	4400	22
.8302	650	22
