Measured thermophysical data. Surface tension and liquid viscosity measurement of ethyl fluoride(R161) under saturation condition
Source: Fluid Phase Equilib., 2015, 10.1016/j.fluid.2015.07.010
Compound 1: ethyl fluoride, C2H5F, purity 99.74%

System: ethyl fluoride; phases: Liquid, Gas
Property: Kinematic viscosity, m2/s (Liquid); method: Scattered Light Surfacing
Temperature, K	Kinematic viscosity, m2/s	uncertainty
293.43	.0000001806	.000000010836
303.14	.0000001661	.000000009966
313.11	.0000001525	.00000000915
323.14	.0000001422	.000000008532
333.15	.0000001318	.000000007908
343.14	.0000001217	.000000007302
353.12	.0000001117	.000000006702
363.11	.000000103	.00000000618
373.09	.0000000897	.000000005382

System: ethyl fluoride; phases: Liquid, Gas
Property: Surface tension liquid-gas, N/m (Liquid); method: Surface Light Scattering
Temperature, K	Surface tension liquid-gas, N/m	uncertainty
293.43	.00946	.0001419
303.14	.00816	.0001224
313.11	.00678	.0001017
323.14	.00546	.0000819
333.15	.0042	.000063
343.14	.003	.000045
353.12	.00189	.00002835
363.11	.00092	.0000138
373.09	.00013	.00000195

System: ethyl fluoride; phases: Liquid, Gas
Property: Surface tension liquid-gas, N/m (Liquid); method: Capillary rise
Temperature, K	Surface tension liquid-gas, N/m	uncertainty
244.13	.01672	.0002508
246.15	.01642	.0002463
248.13	.01618	.0002427
250.05	.01587	.00023805
252.1	.01559	.00023385
254.15	.01526	.0002289
256.05	.01497	.00022455
258.13	.01469	.00022035
260.05	.01438	.0002157
262.08	.01413	.00021195
264.13	.01385	.00020775
266.1	.01358	.0002037
268.08	.01327	.00019905
270.1	.013	.000195
272.04	.01269	.00019035
274.1	.0124	.000186
276.03	.01208	.0001812
278.14	.01181	.00017715
280.14	.01154	.0001731
282.14	.01125	.00016875
284.14	.01095	.00016425
286.12	.01067	.00016005
288.13	.01038	.0001557
290.12	.0101	.0001515
292.13	.00982	.0001473
294.12	.00953	.00014295
296.12	.00924	.0001386
298.1	.00896	.0001344
300.11	.00866	.0001299
302.17	.00837	.00012555
304.11	.00808	.0001212
305.13	.00795	.00011925
306.12	.00783	.00011745
308.12	.00754	.0001131
310.18	.00727	.00010905
312.17	.007	.000105
314.18	.00671	.00010065
316.17	.00644	.0000966
318.16	.00617	.00009255
320.17	.00586	.0000879
322.18	.00561	.00008415
324.18	.00539	.00008085
326.17	.00508	.0000762
328.16	.00484	.0000726
330.17	.0046	.000069
332.17	.00433	.00006495
334.16	.0041	.0000615
