Measured thermophysical data. Measurement and correlation of solid-liquid equilibria for three binaries, ethanol-antipyrine, chloroform-antipyrine, and dimethyl ether-antipyrine
Source: Fluid Phase Equilib., 2016, 10.1016/j.fluid.2015.11.035
Compound 1: naphthalene, C10H8, purity 99.0%
Compound 2: ethanol, C2H6O, purity 99.5%
Compound 3: antipyrine, C11H12N2O, purity 99.0%
Compound 4: cyclohexane, C6H12, purity 99.5%
Compound 5: chloroform, CHCl3, purity 99.0%
Compound 6: dimethyl ether, C2H6O, purity 97.0%

System: naphthalene + cyclohexane; phases: Liquid, Crystal
Fixed: Pressure, kPa = 101
Property: Solid-liquid equilibrium temperature, K (Liquid); method: Visual observation
Mole fraction of cyclohexane	Solid-liquid equilibrium temperature, K	uncertainty
0	353.07	
.308	337.34	
.51	326.32	
.731	310.68	
.821	300.33	
.913	283.43	

System: naphthalene + cyclohexane; phases: Liquid, Crystal
Fixed: Pressure, kPa = 101
Property: Solid-liquid equilibrium temperature, K (Liquid); method: Visual observation
Mole fraction of cyclohexane	Solid-liquid equilibrium temperature, K	uncertainty
.956	269.1	
.978	273.61	
1	279.4	

System: naphthalene + cyclohexane; phases: Liquid, Crystal
Fixed: Pressure, kPa = 5000
Property: Solid-liquid equilibrium temperature, K (Liquid); method: Visual observation
Mole fraction of cyclohexane	Solid-liquid equilibrium temperature, K	uncertainty
.495	328.95	
.59	323.1	
.702	315.8	
.832	301.29	

System: antipyrine + ethanol; phases: Liquid, Crystal
Fixed: Pressure, kPa = 101
Property: Solid-liquid equilibrium temperature, K (Liquid); method: Visual observation
Mole fraction of ethanol	Solid-liquid equilibrium temperature, K	uncertainty
.418	349.45	
.569	333.12	
.645	321.35	
.687	314.76	
.748	304	
.8	294.73	
.839	284.97	
.893	269.3	
.935	255.01	

System: antipyrine + chloroform; phases: Liquid, Crystal
Fixed: Pressure, kPa = 101
Property: Solid-liquid equilibrium temperature, K (Liquid); method: Visual observation
Mole fraction of chloroform	Solid-liquid equilibrium temperature, K	uncertainty
.254	365.56	
.36	357.56	
.398	352.93	
.542	333.62	
.58	326.25	
.62	316.24	
.666	299.64	
.69	288.92	
.735	270.53	

System: antipyrine + dimethyl ether; phases: Liquid, Crystal
Fixed: Pressure, kPa = 5000
Property: Solid-liquid equilibrium temperature, K (Liquid); method: Visual observation
Mole fraction of dimethyl ether	Solid-liquid equilibrium temperature, K	uncertainty
.693	345.87	
.773	343.21	
.826	340.61	
.875	338.95	
.931	334.16	
.959	326.18	
