Measured thermophysical data. Measurement and correlation for the thermophysical properties of hydroxyethyl ammonium based protic ionic liquids: Effect of temperature and alkyl chain length on anion
Source: Fluid Phase Equilib., 2016, 10.1016/j.fluid.2016.07.022
Compound 1: N-butyl-2-hydroxy ethylammonium formate, C7H17NO3, purity 97%
Compound 2: N-butyl-2-hydroxy ethylammonium acetate, C8H19NO3, purity 97%
Compound 3: N-butyl-2-hydroxy ethylammonium propionate, C9H21NO3, purity 97%
Compound 4: N-butyl-2-hydroxy ethylammonium butanoate, C10H23NO3, purity 97%
Compound 5: N-butyl-2-hydroxy ethylammonium pentanoate, C11H25NO3, purity 97%

System: N-butyl-2-hydroxy ethylammonium formate; phases: Liquid
Fixed: Pressure, kPa = 101.325
Property: Molar entropy, J/K/mol (Liquid); method: calculated from molecular volume
Temperature, K	Molar entropy, J/K/mol	uncertainty
298.15	355.1	

System: N-butyl-2-hydroxy ethylammonium formate; phases: Liquid
Fixed: Pressure, kPa = 101.325
Property: Mass density, kg/m3 (Liquid); method: Vibrating tube method
Temperature, K	Mass density, kg/m3	uncertainty
293.15	1038.1	
298.15	1035.1	
303.15	1032.1	
308.15	1029.1	
313.15	1026.1	
318.15	1023.1	
323.15	1020.1	
328.15	1017	
333.15	1013.9	
338.15	1010.9	
343.15	1007.8	

System: N-butyl-2-hydroxy ethylammonium formate; phases: Liquid
Fixed: Pressure, kPa = 101.325
Property: Speed of sound, m/s (Liquid); method: Sing-around technique in a fixed-path interferometer
Temperature, K	Speed of sound, m/s	uncertainty
293.15	1616.5	
298.15	1602.4	
303.15	1588.4	
308.15	1574.7	
313.15	1561.4	
318.15	1548.2	
323.15	1535.1	
328.15	1522.2	
333.15	1509.2	
338.15	1496.4	
343.15	1483.4	

System: N-butyl-2-hydroxy ethylammonium formate; phases: Liquid
Fixed: Pressure, kPa = 101.325
Property: Viscosity, Pa*s (Liquid); method: Falling or rolling sphere viscometry
Temperature, K	Viscosity, Pa*s	uncertainty
293.15	.4744	
298.15	.3328	
303.15	.2342	
308.15	.1702	
313.15	.1283	
318.15	.0969	
323.15	.075	
328.15	.0573	
333.15	.0457	
338.15	.0363	
343.15	.0293	

System: N-butyl-2-hydroxy ethylammonium acetate; phases: Liquid
Fixed: Pressure, kPa = 101.325
Property: Molar entropy, J/K/mol (Liquid); method: calculated from molecular volume
Temperature, K	Molar entropy, J/K/mol	uncertainty
298.15	389	

System: N-butyl-2-hydroxy ethylammonium acetate; phases: Liquid
Fixed: Pressure, kPa = 101.325
Property: Mass density, kg/m3 (Liquid); method: Vibrating tube method
Temperature, K	Mass density, kg/m3	uncertainty
293.15	1021.2	
298.15	1017.8	
303.15	1014.3	
308.15	1010.8	
313.15	1007.3	
318.15	1003.8	
323.15	1000.3	
328.15	996.6	
333.15	993	
338.15	989.3	
343.15	985.6	

System: N-butyl-2-hydroxy ethylammonium acetate; phases: Liquid
Fixed: Pressure, kPa = 101.325
Property: Speed of sound, m/s (Liquid); method: Sing-around technique in a fixed-path interferometer
Temperature, K	Speed of sound, m/s	uncertainty
293.15	1566.5	
298.15	1546.5	
303.15	1528.1	
308.15	1510.8	
313.15	1494	
318.15	1477.6	
323.15	1461.4	
328.15	1445.2	
333.15	1429.3	
338.15	1413.2	
343.15	1397.2	

System: N-butyl-2-hydroxy ethylammonium acetate; phases: Liquid
Fixed: Pressure, kPa = 101.325
Property: Viscosity, Pa*s (Liquid); method: Falling or rolling sphere viscometry
Temperature, K	Viscosity, Pa*s	uncertainty
293.15	.5482	
298.15	.4216	
303.15	.2954	
308.15	.2145	
313.15	.1584	
318.15	.119	
323.15	.0894	
328.15	.0686	
333.15	.054	
338.15	.0429	
343.15	.0345	

System: N-butyl-2-hydroxy ethylammonium propionate; phases: Liquid
Fixed: Pressure, kPa = 101.325
Property: Molar entropy, J/K/mol (Liquid); method: calculated from molecular volume
Temperature, K	Molar entropy, J/K/mol	uncertainty
298.15	423.8	

System: N-butyl-2-hydroxy ethylammonium propionate; phases: Liquid
Fixed: Pressure, kPa = 101.325
Property: Mass density, kg/m3 (Liquid); method: Vibrating tube method
Temperature, K	Mass density, kg/m3	uncertainty
293.15	1004.9	
298.15	1001.4	
303.15	997.9	
308.15	994.4	
313.15	990.8	
318.15	987.3	
323.15	983.6	
328.15	979.9	
333.15	976.3	
338.15	972.5	
343.15	968.8	

System: N-butyl-2-hydroxy ethylammonium propionate; phases: Liquid
Fixed: Pressure, kPa = 101.325
Property: Speed of sound, m/s (Liquid); method: Sing-around technique in a fixed-path interferometer
Temperature, K	Speed of sound, m/s	uncertainty
293.15	1513.8	
298.15	1496.1	
303.15	1478.9	
308.15	1462.2	
313.15	1445.9	
318.15	1429.7	
323.15	1413.7	
328.15	1397.4	
333.15	1381.6	
338.15	1365.8	
343.15	1350.1	

System: N-butyl-2-hydroxy ethylammonium propionate; phases: Liquid
Fixed: Pressure, kPa = 101.325
Property: Viscosity, Pa*s (Liquid); method: Falling or rolling sphere viscometry
Temperature, K	Viscosity, Pa*s	uncertainty
293.15	.6756	
298.15	.5026	
303.15	.3851	
308.15	.2821	
313.15	.212	
318.15	.155	
323.15	.1156	
328.15	.0876	
333.15	.0674	
338.15	.0524	
343.15	.0416	

System: N-butyl-2-hydroxy ethylammonium butanoate; phases: Liquid
Fixed: Pressure, kPa = 101.325
Property: Mass density, kg/m3 (Liquid); method: Vibrating tube method
Temperature, K	Mass density, kg/m3	uncertainty
298.15	980.15	1

System: N-butyl-2-hydroxy ethylammonium butanoate; phases: Liquid
Fixed: Pressure, kPa = 101.325
Property: Molar entropy, J/K/mol (Liquid); method: calculated from molecular volume
Temperature, K	Molar entropy, J/K/mol	uncertainty
298.15	461.9	

System: N-butyl-2-hydroxy ethylammonium butanoate; phases: Liquid
Fixed: Pressure, kPa = 101.325
Property: Mass density, kg/m3 (Liquid); method: Vibrating tube method
Temperature, K	Mass density, kg/m3	uncertainty
293.15	983.7	
298.15	980.1	
303.15	976.6	
308.15	973	
313.15	969.4	
318.15	965.7	
323.15	962	
328.15	958.3	
333.15	954.5	
338.15	950.7	
343.15	946.9	

System: N-butyl-2-hydroxy ethylammonium butanoate; phases: Liquid
Fixed: Pressure, kPa = 101.325
Property: Speed of sound, m/s (Liquid); method: Sing-around technique in a fixed-path interferometer
Temperature, K	Speed of sound, m/s	uncertainty
293.15	1484.6	
298.15	1466.6	
303.15	1449	
308.15	1431.9	
313.15	1415.2	
318.15	1398.7	
323.15	1382.4	
328.15	1366.2	
333.15	1350.2	
338.15	1334.1	
343.15	1318.2	

System: N-butyl-2-hydroxy ethylammonium butanoate; phases: Liquid
Fixed: Pressure, kPa = 101.325
Property: Viscosity, Pa*s (Liquid); method: Falling or rolling sphere viscometry
Temperature, K	Viscosity, Pa*s	uncertainty
293.15	.7486	
298.15	.5768	
303.15	.4359	
308.15	.3189	
313.15	.2316	
318.15	.1581	
323.15	.1224	
328.15	.0926	
333.15	.0698	
338.15	.0552	
343.15	.0431	

System: N-butyl-2-hydroxy ethylammonium butanoate; phases: Liquid
Fixed: Pressure, kPa = 101.325
Property: Speed of sound, m/s (Liquid); method: Sing-around technique in a fixed-path interferometer
Temperature, K	Speed of sound, m/s	uncertainty
298.15	1464.57	

System: N-butyl-2-hydroxy ethylammonium butanoate; phases: Liquid
Fixed: Pressure, kPa = 101.325
Property: Viscosity, Pa*s (Liquid); method: Falling or rolling sphere viscometry
Temperature, K	Viscosity, Pa*s	uncertainty
298.15	.19767	

System: N-butyl-2-hydroxy ethylammonium butanoate; phases: Liquid
Fixed: Pressure, kPa = 101.325
Property: Mass density, kg/m3 (Liquid); method: Vibrating tube method
Temperature, K	Mass density, kg/m3	uncertainty
298.15	981.17	1

System: N-butyl-2-hydroxy ethylammonium butanoate; phases: Liquid
Fixed: Pressure, kPa = 101.325
Property: Speed of sound, m/s (Liquid); method: Sing-around technique in a fixed-path interferometer
Temperature, K	Speed of sound, m/s	uncertainty
298.15	1466.2	

System: N-butyl-2-hydroxy ethylammonium butanoate; phases: Liquid
Fixed: Pressure, kPa = 101.325
Property: Viscosity, Pa*s (Liquid); method: Falling or rolling sphere viscometry
Temperature, K	Viscosity, Pa*s	uncertainty
298.15	.19086	

System: N-butyl-2-hydroxy ethylammonium butanoate; phases: Liquid
Fixed: Pressure, kPa = 101.325
Property: Mass density, kg/m3 (Liquid); method: Vibrating tube method
Temperature, K	Mass density, kg/m3	uncertainty
298.15	982.18	1

System: N-butyl-2-hydroxy ethylammonium butanoate; phases: Liquid
Fixed: Pressure, kPa = 101.325
Property: Speed of sound, m/s (Liquid); method: Sing-around technique in a fixed-path interferometer
Temperature, K	Speed of sound, m/s	uncertainty
298.15	1467.92	

System: N-butyl-2-hydroxy ethylammonium butanoate; phases: Liquid
Fixed: Pressure, kPa = 101.325
Property: Viscosity, Pa*s (Liquid); method: Falling or rolling sphere viscometry
Temperature, K	Viscosity, Pa*s	uncertainty
298.15	.18552	

System: N-butyl-2-hydroxy ethylammonium butanoate; phases: Liquid
Fixed: Pressure, kPa = 101.325
Property: Mass density, kg/m3 (Liquid); method: Vibrating tube method
Temperature, K	Mass density, kg/m3	uncertainty
298.15	982.74	1

System: N-butyl-2-hydroxy ethylammonium butanoate; phases: Liquid
Fixed: Pressure, kPa = 101.325
Property: Speed of sound, m/s (Liquid); method: Sing-around technique in a fixed-path interferometer
Temperature, K	Speed of sound, m/s	uncertainty
298.15	1468.94	

System: N-butyl-2-hydroxy ethylammonium butanoate; phases: Liquid
Fixed: Pressure, kPa = 101.325
Property: Viscosity, Pa*s (Liquid); method: Falling or rolling sphere viscometry
Temperature, K	Viscosity, Pa*s	uncertainty
298.15	.18263	

System: N-butyl-2-hydroxy ethylammonium pentanoate; phases: Liquid
Fixed: Pressure, kPa = 101.325
Property: Molar entropy, J/K/mol (Liquid); method: calculated from molecular volume
Temperature, K	Molar entropy, J/K/mol	uncertainty
298.15	498	

System: N-butyl-2-hydroxy ethylammonium pentanoate; phases: Liquid
Fixed: Pressure, kPa = 101.325
Property: Mass density, kg/m3 (Liquid); method: Vibrating tube method
Temperature, K	Mass density, kg/m3	uncertainty
293.15	970	
298.15	966.5	
303.15	963	
308.15	959.4	
313.15	955.8	
318.15	952.2	
323.15	948.5	
328.15	944.8	
333.15	941.1	
338.15	937.4	
343.15	933.6	

System: N-butyl-2-hydroxy ethylammonium pentanoate; phases: Liquid
Fixed: Pressure, kPa = 101.325
Property: Speed of sound, m/s (Liquid); method: Sing-around technique in a fixed-path interferometer
Temperature, K	Speed of sound, m/s	uncertainty
293.15	1460	
298.15	1442.3	
303.15	1425.1	
308.15	1408.3	
313.15	1391.8	
318.15	1375.7	
323.15	1359.6	
328.15	1343.8	
333.15	1328	
338.15	1312.2	
343.15	1296.6	

System: N-butyl-2-hydroxy ethylammonium pentanoate; phases: Liquid
Fixed: Pressure, kPa = 101.325
Property: Viscosity, Pa*s (Liquid); method: Falling or rolling sphere viscometry
Temperature, K	Viscosity, Pa*s	uncertainty
293.15	.8963	
298.15	.6841	
303.15	.5058	
308.15	.3499	
313.15	.2441	
318.15	.1771	
323.15	.1311	
328.15	.0981	
333.15	.0739	
338.15	.0579	
343.15	.0454	
