Measured thermophysical data. Solution thermodynamics of simvastatin in pure solvents and binary solvent mixtures
Source: Fluid Phase Equilib., 2015, 10.1016/j.fluid.2015.07.055
Compound 1: simvastatin, C25H38O5, purity 99.0%
Compound 2: methyl acetate, C3H6O2, purity 98.0%
Compound 3: ethyl acetate, C4H8O2, purity 99.5%
Compound 4: n-propyl acetate, C5H10O2, purity 98.0%
Compound 5: n-butyl acetate, C6H12O2, purity 99.0%
Compound 6: isobutyl acetate, C6H12O2, purity 98.5%
Compound 7: n-heptane, C7H16, purity 98.5%

System: simvastatin; phases: Crystal, Liquid, Air at 1 atmosphere
Property: Molar enthalpy of transition or fusion, kJ/mol (Crystal); method: DSC
Molar enthalpy of transition or fusion, kJ/mol	uncertainty
30.13	.6026

System: simvastatin; phases: Crystal, Liquid, Air at 1 atmosphere
Property: Normal melting temperature, K (Crystal); method: DSC/DTA
Normal melting temperature, K	uncertainty
415.1	.5

System: methyl acetate + simvastatin; phases: Liquid, Crystal
Fixed: Pressure, kPa = 101
Property: Mole fraction of simvastatin (Liquid); method: gravimetric
Temperature, K	Mole fraction of simvastatin	uncertainty
278.15	.0241	.001205
283.15	.029	.00145
288.15	.0339	.001695
293.15	.0414	.00207
298.15	.0503	.002515
303.15	.0608	.00304
308.15	.0765	.003825
313.15	.0949	.004745
318.15	.1122	.00561

System: ethyl acetate + simvastatin; phases: Liquid, Crystal
Fixed: Pressure, kPa = 101
Property: Mole fraction of simvastatin (Liquid); method: gravimetric
Temperature, K	Mole fraction of simvastatin	uncertainty
278.15	.0219	.001095
283.15	.0261	.001305
288.15	.0318	.00159
293.15	.0379	.001895
298.15	.0428	.00214
303.15	.0519	.002595
308.15	.0631	.003155
313.15	.0807	.004035
318.15	.0943	.004715

System: n-propyl acetate + simvastatin; phases: Liquid, Crystal
Fixed: Pressure, kPa = 101
Property: Mole fraction of simvastatin (Liquid); method: gravimetric
Temperature, K	Mole fraction of simvastatin	uncertainty
278.15	.0197	.000985
283.15	.0233	.001165
288.15	.029	.00145
293.15	.0348	.00174
298.15	.0382	.00191
303.15	.0457	.002285
308.15	.0553	.002765
313.15	.0697	.003485
318.15	.0816	.00408

System: n-butyl acetate + simvastatin; phases: Liquid, Crystal
Fixed: Pressure, kPa = 101
Property: Mole fraction of simvastatin (Liquid); method: gravimetric
Temperature, K	Mole fraction of simvastatin	uncertainty
278.15	.0193	.000965
283.15	.0227	.001135
288.15	.0251	.001255
293.15	.0308	.00154
298.15	.0345	.001725
303.15	.0419	.002095
308.15	.0503	.002515
313.15	.0597	.002985
318.15	.0703	.003515

System: isobutyl acetate + simvastatin; phases: Liquid, Crystal
Fixed: Pressure, kPa = 101
Property: Mole fraction of simvastatin (Liquid); method: gravimetric
Temperature, K	Mole fraction of simvastatin	uncertainty
278.15	.0164	.00082
283.15	.0197	.000985
288.15	.0239	.001195
293.15	.0282	.00141
298.15	.0328	.00164
303.15	.0393	.001965
308.15	.0501	.002505
313.15	.0546	.00273
318.15	.0651	.003255

System: isobutyl acetate + n-heptane + simvastatin; phases: Liquid, Crystal
Fixed: Pressure, kPa = 100
Property: Mole fraction of simvastatin (Liquid); method: gravimetric
Temperature, K	Solvent: Mole fraction of n-heptane	Mole fraction of simvastatin	uncertainty
278.15	0	.01642	.000821
283.15	0	.01969	.0009845
288.15	0	.02393	.0011965
293.15	0	.02823	.0014115
298.15	0	.03279	.0016395
303.15	0	.03927	.0019635
308.15	0	.05011	.0025055
278.15	.092	.0137	.000685
283.15	.092	.0161	.000805
288.15	.092	.01831	.0009155
293.15	.092	.02106	.001053
298.15	.092	.02469	.0012345
303.15	.092	.02909	.0014545
308.15	.092	.03554	.001777
278.15	.115	.01304	.000652
283.15	.115	.01489	.0007445
288.15	.115	.01709	.0008545
293.15	.115	.01959	.0009795
298.15	.115	.02272	.001136
303.15	.115	.02706	.001353
308.15	.115	.03303	.0016515
278.15	.154	.01148	.000574
283.15	.154	.01398	.000699
288.15	.154	.0156	.00078
293.15	.154	.01764	.000882
298.15	.154	.02095	.0010475
303.15	.154	.02485	.0012425
308.15	.154	.02924	.001462
278.15	.233	.00907	.0004535
283.15	.233	.01103	.0005515
288.15	.233	.01293	.0006465
293.15	.233	.01583	.0007915
298.15	.233	.01748	.000874
303.15	.233	.0205	.001025
308.15	.233	.02498	.001249
278.15	.353	.00685	.0003425
283.15	.353	.00782	.000391
288.15	.353	.00946	.000473
293.15	.353	.01205	.0006025
298.15	.353	.01348	.000674
303.15	.353	.01599	.0007995
308.15	.353	.01954	.000977
278.15	.476	.00456	.000228
283.15	.476	.00529	.0002645
288.15	.476	.00644	.000322
293.15	.476	.00808	.000404
298.15	.476	.00929	.0004645
303.15	.476	.01085	.0005425
308.15	.476	.01335	.0006675
278.15	.603	.00276	.000138
283.15	.603	.00312	.000156
288.15	.603	.00374	.000187
293.15	.603	.00446	.000223
298.15	.603	.00539	.0002695
303.15	.603	.00618	.000309
308.15	.603	.00734	.000367
278.15	.714	.00107	.0000535
283.15	.714	.00131	.0000655
288.15	.714	.00149	.0000745
293.15	.714	.00177	.0000885
298.15	.714	.00213	.0001065
303.15	.714	.00244	.000122
308.15	.714	.00262	.000131
278.15	.82	.00044	.000022
283.15	.82	.00053	.0000265
288.15	.82	.00061	.0000305
293.15	.82	.00075	.0000375
298.15	.82	.00087	.0000435
303.15	.82	.001	.00005
308.15	.82	.00112	.000056
278.15	.864	.00026	.000013
283.15	.864	.0003	.000015
288.15	.864	.00036	.000018
293.15	.864	.00045	.0000225
298.15	.864	.0005	.000025
303.15	.864	.00062	.000031
308.15	.864	.00071	.0000355
278.15	.891	.00017	.0000085
283.15	.891	.00021	.0000105
288.15	.891	.00025	.0000125
293.15	.891	.00031	.0000155
298.15	.891	.00036	.000018
303.15	.891	.00043	.0000215
308.15	.891	.0005	.000025
