Measured thermophysical data. Isobaric vapor-liquid equilibrium data for methylcyclohexane + 2-methoxyethanol and methylcyclohexane + 2-ethoxyethanol at 50.00 and 101.33 kPa
Source: Fluid Phase Equilib., 2014, 10.1016/j.fluid.2014.07.041
Compound 1: 2-methoxyethanol, C3H8O2, purity 99.97%
Compound 2: 2-ethoxyethanol, C4H10O2, purity 99.68%
Compound 3: methylcyclohexane, C7H14, purity 99.76%

System: 2-methoxyethanol; phases: Liquid, Gas
Property: Boiling temperature at pressure P, K (Liquid); method: Ebulliometric method (Recirculating still)
Pressure, kPa	Boiling temperature at pressure P, K	uncertainty
101.33	397.67	.05

System: 2-methoxyethanol; phases: Liquid
Fixed: Pressure, kPa = 101.325
Property: Mass density, kg/m3 (Liquid); method: Vibrating tube method
Temperature, K	Mass density, kg/m3	uncertainty
298.15	965.31	1

System: 2-ethoxyethanol; phases: Liquid, Gas
Property: Boiling temperature at pressure P, K (Liquid); method: Ebulliometric method (Recirculating still)
Pressure, kPa	Boiling temperature at pressure P, K	uncertainty
101.33	408.62	.05

System: 2-ethoxyethanol; phases: Liquid
Fixed: Pressure, kPa = 101.325
Property: Mass density, kg/m3 (Liquid); method: Vibrating tube method
Temperature, K	Mass density, kg/m3	uncertainty
298.15	928.73	1

System: methylcyclohexane; phases: Liquid, Gas
Property: Boiling temperature at pressure P, K (Liquid); method: Ebulliometric method (Recirculating still)
Pressure, kPa	Boiling temperature at pressure P, K	uncertainty
101.33	373.88	.05

System: methylcyclohexane; phases: Liquid
Fixed: Pressure, kPa = 101.325
Property: Mass density, kg/m3 (Liquid); method: Vibrating tube method
Temperature, K	Mass density, kg/m3	uncertainty
298.15	766.29	1

System: methylcyclohexane + 2-methoxyethanol; phases: Gas, Liquid
Property: Boiling temperature at pressure P, K (Gas); method: Ebulliometric method (Recirculating still)
Mole fraction of methylcyclohexane	Pressure, kPa	Boiling temperature at pressure P, K	uncertainty
0	50	376.27	.05
.005	50	374.91	.05
.013	50	372.92	.05
.019	50	371.76	.05
.024	50	370.53	.05
.04	50	367.35	.05
.072	50	361.55	.05
.103	50	358.28	.05
.154	50	353.49	.05
.208	50	350.07	.05
.25	50	348	.05
.278	50	347.59	.05
.3	50	347.19	.05
.362	50	346.46	.05
.403	50	346.19	.05
.458	50	346.3	.05
.537	50	346.24	.05
.682	50	346.21	.05
.728	50	345.98	.05
.794	50	346.11	.05
.863	50	346.27	.05
.93	50	347.37	.05
.968	50	348.82	.05
.981	50	349.46	.05
1	50	350.62	.05
0	101.33	397.67	.05
.003	101.33	396.77	.05
.009	101.33	395.45	.05
.016	101.33	393.82	.05
.032	101.33	390.14	.05
.047	101.33	387.25	.05
.051	101.33	386.41	.05
.064	101.33	384.24	.05
.137	101.33	375.8	.05
.231	101.33	370.65	.05
.296	101.33	369.17	.05
.457	101.33	368.07	.05
.566	101.33	367.93	.05
.616	101.33	367.87	.05
.67	101.33	367.81	.05
.713	101.33	367.8	.05
.755	101.33	367.83	.05
.784	101.33	367.9	.05
.82	101.33	368.09	.05
.848	101.33	368.35	.05
.862	101.33	368.56	.05
.882	101.33	368.9	.05
.898	101.33	369.32	.05
.939	101.33	370.65	.05
.973	101.33	372.25	.05
1	101.33	373.88	.05

System: methylcyclohexane + 2-methoxyethanol; phases: Gas, Liquid
Property: Mole fraction of methylcyclohexane (Gas); method: Chromatography
Mole fraction of methylcyclohexane	Pressure, kPa	Mole fraction of methylcyclohexane	uncertainty
0	50	0	.001
.005	50	.05	.001
.013	50	.121	.001
.019	50	.161	.001
.024	50	.2	.001
.04	50	.298	.001
.072	50	.45	.001
.103	50	.526	.001
.154	50	.621	.001
.208	50	.682	.001
.25	50	.717	.001
.278	50	.724	.001
.3	50	.731	.001
.362	50	.744	.001
.403	50	.749	.001
.458	50	.747	.001
.537	50	.748	.001
.682	50	.75	.001
.728	50	.755	.001
.794	50	.764	.001
.863	50	.788	.001
.93	50	.847	.001
.968	50	.914	.001
.981	50	.944	.001
1	50	1	.001
0	101.33	0	.001
.003	101.33	.03	.001
.009	101.33	.074	.001
.016	101.33	.124	.001
.032	101.33	.232	.001
.047	101.33	.31	.001
.051	101.33	.331	.001
.064	101.33	.382	.001
.137	101.33	.564	.001
.231	101.33	.654	.001
.296	101.33	.679	.001
.457	101.33	.699	.001
.566	101.33	.703	.001
.616	101.33	.705	.001
.67	101.33	.71	.001
.713	101.33	.716	.001
.755	101.33	.724	.001
.784	101.33	.733	.001
.82	101.33	.748	.001
.848	101.33	.763	.001
.862	101.33	.773	.001
.882	101.33	.79	.001
.898	101.33	.806	.001
.939	101.33	.861	.001
.973	101.33	.93	.001
1	101.33	1	.001

System: methylcyclohexane + 2-methoxyethanol; phases: Liquid, Gas
Property: Azeotropic composition: mole fraction of methylcyclohexane (Liquid); method: By X=Y
Pressure, kPa	Azeotropic composition: mole fraction of methylcyclohexane	uncertainty
50	.7605	
101.33	.7165	

System: methylcyclohexane + 2-methoxyethanol; phases: Liquid, Gas
Property: Azeotropic temperature, K (Liquid); method: By X=Y
Pressure, kPa	Azeotropic temperature, K	uncertainty
50	346.09	
101.33	367.81	

System: methylcyclohexane + 2-ethoxyethanol; phases: Gas, Liquid
Property: Boiling temperature at pressure P, K (Gas); method: Ebulliometric method (Recirculating still)
Mole fraction of methylcyclohexane	Pressure, kPa	Boiling temperature at pressure P, K	uncertainty
0	50	386.58	.05
.007	50	384.7	.05
.02	50	382.32	.05
.049	50	377.45	.05
.077	50	373.18	.05
.117	50	368.1	.05
.166	50	363.05	.05
.3	50	355.31	.05
.358	50	353.45	.05
.409	50	352.25	.05
.46	50	351.41	.05
.656	50	349.8	.05
.721	50	349.6	.05
.78	50	349.43	.05
.794	50	349.38	.05
.837	50	349.27	.05
.878	50	349.19	.05
.922	50	349.25	.05
.979	50	349.87	.05
1	50	350.62	.05
0	101.33	408.62	.05
.018	101.33	405.76	.05
.035	101.33	403.18	.05
.046	101.33	401.61	.05
.079	101.33	397.23	.05
.091	101.33	395.66	.05
.117	101.33	392.61	.05
.195	101.33	384.65	.05
.286	101.33	378.95	.05
.409	101.33	374.73	.05
.465	101.33	373.64	.05
.508	101.33	373.04	.05
.565	101.33	372.48	.05
.672	101.33	371.87	.05
.702	101.33	371.76	.05
.753	101.33	371.6	.05
.849	101.33	371.44	.05
.872	101.33	371.46	.05
.936	101.33	371.94	.05
.967	101.33	372.59	.05
.988	101.33	373.39	.05
1	101.33	373.88	.05

System: methylcyclohexane + 2-ethoxyethanol; phases: Gas, Liquid
Property: Mole fraction of methylcyclohexane (Gas); method: Chromatography
Mole fraction of methylcyclohexane	Pressure, kPa	Mole fraction of methylcyclohexane	uncertainty
0	50	0	.001
.007	50	.055	.001
.02	50	.145	.001
.049	50	.301	.001
.077	50	.418	.001
.117	50	.534	.001
.166	50	.635	.001
.3	50	.758	.001
.358	50	.786	.001
.409	50	.805	.001
.46	50	.817	.001
.656	50	.844	.001
.721	50	.851	.001
.78	50	.858	.001
.794	50	.862	.001
.837	50	.866	.001
.878	50	.884	.001
.922	50	.904	.001
.979	50	.96	.001
1	50	1	.001
0	101.33	0	.001
.018	101.33	.095	.001
.035	101.33	.179	.001
.046	101.33	.226	.001
.079	101.33	.346	.001
.091	101.33	.382	.001
.117	101.33	.456	.001
.195	101.33	.612	.001
.286	101.33	.705	.001
.409	101.33	.768	.001
.465	101.33	.784	.001
.508	101.33	.794	.001
.565	101.33	.804	.001
.672	101.33	.817	.001
.702	101.33	.82	.001
.753	101.33	.827	.001
.849	101.33	.847	.001
.872	101.33	.856	.001
.936	101.33	.898	.001
.967	101.33	.936	.001
.988	101.33	.976	.001
1	101.33	1	.001

System: methylcyclohexane + 2-ethoxyethanol; phases: Liquid, Gas
Property: Azeotropic composition: mole fraction of methylcyclohexane (Liquid); method: By X=Y
Pressure, kPa	Azeotropic composition: mole fraction of methylcyclohexane	uncertainty
50	.8831	
101.33	.8472	

System: methylcyclohexane + 2-ethoxyethanol; phases: Liquid, Gas
Property: Azeotropic temperature, K (Liquid); method: By X=Y
Pressure, kPa	Azeotropic temperature, K	uncertainty
50	349.25	
101.33	371.42	
