Measured thermophysical data. VLE of CO2 + glycerol + (ethanol or 1-propanol or 1-butanol)
Source: Fluid Phase Equilib., 2011, 10.1016/j.fluid.2011.01.019
Compound 1: 1-propanol, C3H8O, purity 99.5%
Compound 2: 1,2,3-propanetriol, C3H8O3, purity 99.5%
Compound 3: 1-butanol, C4H10O, purity 99.5%
Compound 4: ethanol, C2H6O, purity 99.8%
Compound 5: carbon dioxide, CO2, purity 99.9998%

System: 1,2,3-propanetriol + ethanol + carbon dioxide; phases: Gas, Liquid
Property: Vapor or sublimation pressure, kPa (Gas); method: Closed cell (Static) method
Temperature, K	Mole fraction of carbon dioxide	Mole fraction of ethanol	Vapor or sublimation pressure, kPa	uncertainty
313.15	.9865	.0134	7508	10
313.15	.9793	.0205	8108	10
333.15	.9838	.0161	10340	10
333.15	.9655	.0342	10630	10
333.15	.9361	.0633	10760	10
333.15	.8806	.1184	10780	10

System: 1,2,3-propanetriol + ethanol + carbon dioxide; phases: Liquid, Gas
Property: Vapor or sublimation pressure, kPa (Liquid); method: Closed cell (Static) method
Temperature, K	Mole fraction of carbon dioxide	Mole fraction of ethanol	Vapor or sublimation pressure, kPa	uncertainty
313.15	.972	.0278	8143	10
313.15	.9624	.0373	8067	10
313.15	.9492	.0504	8084	10
313.15	.9304	.069	7946	10
313.15	.9108	.0884	7884	10
313.15	.8211	.1773	7746	10
313.15	.735	.2627	7564	10
313.15	.4976	.498	6591	10
333.15	.8806	.1184	10780	10
333.15	.8524	.1463	10750	10
333.15	.7867	.2114	10670	10
333.15	.7329	.2648	10470	10
333.15	.7204	.2772	10410	10
333.15	.6899	.3074	10220	10

System: 1,2,3-propanetriol + ethanol + carbon dioxide; phases: Liquid, Gas
Property: Critical pressure, kPa (Liquid); method: Direct measurement
Mole fraction of carbon dioxide	Mole fraction of ethanol	Critical pressure, kPa	uncertainty
.8806	.1184	10780	10

System: 1,2,3-propanetriol + ethanol + carbon dioxide; phases: Liquid, Gas
Property: Critical temperature, K (Liquid); method: Visual observation in an unstirred cell
Mole fraction of carbon dioxide	Mole fraction of ethanol	Critical temperature, K	uncertainty
.8806	.1184	333.15	.01

System: 1,2,3-propanetriol + 1-propanol + carbon dioxide; phases: Liquid, Gas
Property: Vapor or sublimation pressure, kPa (Liquid); method: Closed cell (Static) method
Temperature, K	Mole fraction of carbon dioxide	Mole fraction of 1-propanol	Vapor or sublimation pressure, kPa	uncertainty
313.15	.9824	.0174	8219	10
313.15	.9794	.0204	8198	10
313.15	.963	.0367	8101	10
313.15	.9272	.0722	7970	10
313.15	.9006	.0985	7929	10
313.15	.8325	.166	7798	10
313.15	.7695	.2285	7626	10
313.15	.6695	.3276	7384	10
333.15	.8752	.1237	11050	10
333.15	.8307	.1678	10980	10
333.15	.7673	.2307	10840	10

System: 1,2,3-propanetriol + 1-propanol + carbon dioxide; phases: Gas, Liquid
Property: Vapor or sublimation pressure, kPa (Gas); method: Closed cell (Static) method
Temperature, K	Mole fraction of carbon dioxide	Mole fraction of 1-propanol	Vapor or sublimation pressure, kPa	uncertainty
313.15	.9911	.0088	7963	10
313.15	.9859	.014	8205	10
313.15	.9824	.0174	8219	10
333.15	.9772	.0226	10790	10
333.15	.9527	.0469	10940	10
333.15	.9469	.0526	11000	10
333.15	.9262	.0732	11030	10

System: 1,2,3-propanetriol + 1-butanol + carbon dioxide; phases: Gas, Liquid
Property: Vapor or sublimation pressure, kPa (Gas); method: Closed cell (Static) method
Temperature, K	Mole fraction of carbon dioxide	Mole fraction of 1-butanol	Vapor or sublimation pressure, kPa	uncertainty
313.15	.9934	.0065	8184	10
333.15	.9846	.0153	10950	10
333.15	.9767	.0231	11220	10
333.15	.9662	.0335	11430	10
333.15	.9417	.0578	11730	10

System: 1,2,3-propanetriol + 1-butanol + carbon dioxide; phases: Liquid, Gas
Property: Vapor or sublimation pressure, kPa (Liquid); method: Closed cell (Static) method
Temperature, K	Mole fraction of carbon dioxide	Mole fraction of 1-butanol	Vapor or sublimation pressure, kPa	uncertainty
313.15	.9697	.03	8136	10
313.15	.9439	.0556	8088	10
313.15	.9173	.082	8019	10
313.15	.8683	.1305	7963	10
313.15	.8121	.1863	7826	10
313.15	.7169	.2806	7598	10
333.15	.9235	.0758	11740	10
333.15	.8943	.1048	11650	10
333.15	.8364	.1622	11530	10
333.15	.8077	.1906	11490	10
333.15	.7264	.2712	11360	10
