Measured thermophysical data. Isothermal vapour pressures and thermodynamic excess properties of 3,5- and 2,6-dimethylpyridine with cyclohexane. Measurements and prediction
Source: Fluid Phase Equilib., 2014, 10.1016/j.fluid.2014.04.004
Compound 1: cyclohexane, C6H12, purity 99.7%
Compound 2: 2,6-dimethylpyridine, C7H9N, purity 99%
Compound 3: 3,5-dimethylpyridine, C7H9N, purity 98%

System: cyclohexane; phases: Liquid, Gas
Property: Vapor or sublimation pressure, kPa (Liquid); method: Closed cell (Static) method
Temperature, K	Vapor or sublimation pressure, kPa	uncertainty
283.32	6.389	.000003
288.28	8.195	.000003
293.27	10.417	.000003
298.25	13.173	.000003
303.27	16.453	.000003
313.24	24.971	.000003
323.21	36.721	.000003
333.21	52.48	.000003
343.18	72.982	.000003
353.14	99.11	.000003

System: 2,6-dimethylpyridine; phases: Liquid, Gas
Property: Vapor or sublimation pressure, kPa (Liquid); method: Closed cell (Static) method
Temperature, K	Vapor or sublimation pressure, kPa	uncertainty
283.37	.3	.00003
288.33	.42	.00003
293.3	.581	.00003
298.3	.794	.00001
303.27	1.07	.00001
313.27	1.879	.000003
323.24	3.163	.000003
333.21	5.1399	.000003
343.2	8.101	.000003
353.14	12.23	.000003

System: 3,5-dimethylpyridine; phases: Liquid, Gas
Property: Vapor or sublimation pressure, kPa (Liquid); method: Closed cell (Static) method
Temperature, K	Vapor or sublimation pressure, kPa	uncertainty
273.5	.04	.00003
283.45	.085	.00003
293.47	.172	.00003
303.54	.331	.00003
313.56	.612	.00001
323.59	1.078	.00001
333.66	1.824	.000003
343.62	2.973	.000003
353.63	4.688	.000003

System: 2,6-dimethylpyridine + cyclohexane; phases: Liquid
Fixed: Pressure, kPa = 101
Fixed: Temperature, K = 303.15
Property: Excess molar enthalpy (molar enthalpy of mixing), kJ/mol (Liquid); method: Calvet calorimetry
Mole fraction of 2,6-dimethylpyridine	Excess molar enthalpy (molar enthalpy of mixing), kJ/mol	uncertainty
.09	.515	.005
.22	1.001	.005
.275	1.124	.005
.308	1.177	.005
.434	1.249	.005
.529	1.186	.005
.669	.945	.005
.806	.594	.005
.8998	.313	.005

System: 2,6-dimethylpyridine + cyclohexane; phases: Gas, Liquid
Property: Mole fraction of 2,6-dimethylpyridine (Gas); method: Chromatography
Mole fraction of 2,6-dimethylpyridine	Temperature, K	Mole fraction of 2,6-dimethylpyridine	uncertainty
.2254	283.15	.01978	.0001
.4329	283.15	.03526	.0001
.5446	283.15	.04825	.0001
.6436	283.15	.06451	.0001
.8356	283.15	.12531	.0001
.9771	283.15	.44468	.0001
.2254	293.15	.02264	.0001
.4329	293.15	.04176	.0001
.5446	293.15	.05764	.0001
.6436	293.15	.07743	.0001
.8356	293.15	.15108	.0001
.9771	293.15	.5053	.0001
.2254	303.15	.0258	.0001
.4329	303.15	.04884	.0001
.5446	303.15	.06776	.0001
.6436	303.15	.09125	.0001
.8356	303.15	.17845	.0001
.9771	303.15	.56211	.0001
.2254	313.15	.02926	.0001
.4329	313.15	.05646	.0001
.5446	313.15	.07855	.0001
.6436	313.15	.10587	.0001
.8356	313.15	.20709	.0001
.9771	313.15	.61419	.0001
.2254	323.15	.033	.0001
.4329	323.15	.0646	.0001
.5446	323.15	.08996	.0001
.6436	323.15	.12122	.0001
.8356	323.15	.2367	.0001
.9771	323.15	.66097	.0001
.2254	333.15	.03701	.0001
.4329	333.15	.0732	.0001
.5446	333.15	.10195	.0001
.6436	333.15	.13727	.0001
.8356	333.15	.26698	.0001
.9771	333.15	.70219	.0001
.2254	345.15	.04127	.0001
.4329	345.15	.08224	.0001
.5446	345.15	.11451	.0001
.6436	345.15	.154	.0001
.8356	345.15	.29766	.0001
.9771	345.15	.7379	.0001
.2254	353.15	.04573	.0001
.4329	353.15	.09166	.0001
.5446	353.15	.12761	.0001
.6436	353.15	.17145	.0001
.8356	353.15	.3285	.0001
.9771	353.15	.76836	.0001

System: 2,6-dimethylpyridine + cyclohexane; phases: Liquid, Gas
Property: Vapor or sublimation pressure, kPa (Liquid); method: Closed cell (Static) method
Mole fraction of 2,6-dimethylpyridine	Temperature, K	Vapor or sublimation pressure, kPa	uncertainty
.2254	283.15	5.296	.002648
.4329	283.15	4.448	.002224
.5446	283.15	3.952	.001976
.6436	283.15	3.509	.0017545
.8356	283.15	1.96	.00098
.9771	283.15	.668	.000334
.2254	293.15	8.64	.00432
.4329	293.15	7.208	.003604
.5446	293.15	6.386	.003193
.6436	293.15	5.651	.0028255
.8356	293.15	3.157	.0015785
.9771	293.15	1.147	.0005735
.2254	303.15	13.56	.00678
.4329	303.15	11.254	.005627
.5446	303.15	9.946	.004973
.6436	303.15	8.783	.0043915
.8356	303.15	4.927	.0024635
.9771	303.15	1.908	.000954
.2254	313.15	20.566	.010283
.4329	313.15	16.997	.0084985
.5446	313.15	14.994	.007497
.6436	313.15	13.226	.006613
.8356	313.15	7.474	.003737
.9771	313.15	3.081	.0015405
.2254	323.15	30.256	.015128
.4329	323.15	24.922	.012461
.5446	323.15	21.954	.010977
.6436	323.15	19.358	.009679
.8356	323.15	11.047	.0055235
.9771	323.15	4.842	.002421
.2254	333.15	43.313	.0216565
.4329	333.15	35.586	.017793
.5446	333.15	31.314	.015657
.6436	333.15	27.619	.0138095
.8356	333.15	15.95	.007975
.9771	333.15	7.422	.003711
.2254	345.15	60.507	.0302535
.4329	345.15	49.616	.024808
.5446	345.15	43.624	.021812
.6436	345.15	38.507	.0192535
.8356	345.15	22.54	.01127
.9771	345.15	11.121	.0055605
.2254	353.15	82.683	.0413415
.4329	353.15	67.703	.0338515
.5446	353.15	59.493	.0297465
.6436	353.15	52.579	.0262895
.8356	353.15	31.233	.0156165
.9771	353.15	16.315	.0081575

System: cyclohexane + 3,5-dimethylpyridine; phases: Liquid
Fixed: Pressure, kPa = 101
Fixed: Temperature, K = 303.15
Property: Excess molar enthalpy (molar enthalpy of mixing), kJ/mol (Liquid); method: Calvet calorimetry
Mole fraction of 3,5-dimethylpyridine	Excess molar enthalpy (molar enthalpy of mixing), kJ/mol	uncertainty
.085	.4674	.005
.221	.9504	.005
.312	1.1535	.005
.386	1.2323	.005
.515	1.2822	.005
.635	1.1657	.005
.735	.91	.005
.83	.6232	.005
.899	.39796	.005

System: cyclohexane + 3,5-dimethylpyridine; phases: Gas, Liquid
Property: Mole fraction of 3,5-dimethylpyridine (Gas); method: Chromatography
Mole fraction of 3,5-dimethylpyridine	Temperature, K	Mole fraction of 3,5-dimethylpyridine	uncertainty
.1771	283.15	.00732	.0001
.2382	283.15	.00843	.0001
.4053	283.15	.0107	.0001
.5156	283.15	.01233	.0001
.7218	283.15	.01779	.0001
.8528	283.15	.02802	.0001
.9437	283.15	.06063	.0001
.1771	293.15	.00867	.0001
.2382	293.15	.01013	.0001
.4053	293.15	.01324	.0001
.5156	293.15	.01549	.0001
.7218	293.15	.02274	.0001
.8528	293.15	.03595	.0001
.9437	293.15	.07723	.0001
.1771	303.15	.01024	.0001
.2382	303.15	.01209	.0001
.4053	303.15	.01621	.0001
.5156	303.15	.01922	.0001
.7218	303.15	.02861	.0001
.8528	303.15	.04518	.0001
.9437	303.15	.09581	.0001
.1771	313.15	.01204	.0001
.2382	313.15	.01433	.0001
.4053	313.15	.01964	.0001
.5156	313.15	.02357	.0001
.7218	313.15	.03547	.0001
.8528	313.15	.05575	.0001
.9437	313.15	.11618	.0001
.1771	323.15	.01409	.0001
.2382	323.15	.01688	.0001
.4053	323.15	.02358	.0001
.5156	323.15	.0286	.0001
.7218	323.15	.0434	.0001
.8528	323.15	.0677	.0001
.9437	323.15	.13814	.0001
.1771	333.15	.01641	.0001
.2382	333.15	.01977	.0001
.4053	333.15	.02807	.0001
.5156	333.15	.03436	.0001
.7218	333.15	.05248	.0001
.8528	333.15	.08104	.0001
.9437	333.15	.16145	.0001
.1771	343.15	.01901	.0001
.2382	343.15	.023	.0001
.4053	343.15	.03313	.0001
.5156	343.15	.04093	.0001
.7218	343.15	.06279	.0001
.8528	343.15	.09578	.0001
.9437	343.15	.18589	.0001
.1771	353.15	.02191	.0001
.2382	353.15	.02659	.0001
.4053	353.15	.0388	.0001
.5156	353.15	.04834	.0001
.7218	353.15	.0744	.0001
.8528	353.15	.11193	.0001
.9437	353.15	.21125	.0001

System: cyclohexane + 3,5-dimethylpyridine; phases: Liquid, Gas
Property: Vapor or sublimation pressure, kPa (Liquid); method: Closed cell (Static) method
Mole fraction of 3,5-dimethylpyridine	Temperature, K	Vapor or sublimation pressure, kPa	uncertainty
.1771	283.15	5.648	.002824
.2382	283.15	5.451	.0027255
.4053	283.15	4.985	.0024925
.5156	283.15	4.78	.00239
.7218	283.15	3.793	.0018965
.8528	283.15	2.591	.0012955
.9437	283.15	1.308	.000654
.1771	293.15	9.223	.0046115
.2382	293.15	8.86	.00443
.4053	293.15	8.07	.004035
.5156	293.15	7.727	.0038635
.7218	293.15	6.03	.003015
.8528	293.15	4.097	.0020485
.9437	293.15	2.093	.0010465
.1771	303.15	14.475	.0072375
.2382	303.15	13.857	.0069285
.4053	303.15	12.567	.0062835
.5156	303.15	12.016	.006008
.7218	303.15	9.255	.0046275
.8528	303.15	6.278	.003139
.9437	303.15	3.259	.0016295
.1771	313.15	21.938	.010969
.2382	313.15	20.944	.010472
.4053	313.15	18.91	.009455
.5156	313.15	18.058	.009029
.7218	313.15	13.769	.0068845
.8528	313.15	9.35	.004675
.9437	313.15	4.95	.002475
.1771	323.15	32.233	.0161165
.2382	323.15	30.71	.015355
.4053	323.15	27.6	.0138
.5156	323.15	26.325	.0131625
.7218	323.15	19.923	.0099615
.8528	323.15	13.574	.006787
.9437	323.15	7.348	.003674
.1771	333.15	46.066	.023033
.2382	333.15	43.823	.0219115
.4053	333.15	39.204	.019602
.5156	333.15	37.351	.0186755
.7218	333.15	28.114	.014057
.8528	333.15	19.254	.009627
.9437	333.15	10.682	.005341
.1771	343.15	64.222	.032111
.2382	343.15	61.031	.0305155
.4053	343.15	54.347	.0271735
.5156	343.15	51.721	.0258605
.7218	343.15	38.787	.0193935
.8528	343.15	26.738	.013369
.9437	343.15	15.232	.007616
.1771	353.15	87.56	.04378
.2382	353.15	83.152	.041576
.4053	353.15	73.708	.036854
.5156	353.15	70.073	.0350365
.7218	353.15	52.429	.0262145
.8528	353.15	36.422	.018211
.9437	353.15	21.334	.010667
