Measured thermophysical data. Isobaric vapor-liquid equilibrium at 101.3 kPa and excess properties at 298.15 K for binary  mixtures of methyl phenyl carbonate with methanol or dimethyl carbonate
Source: Fluid Phase Equilib., 2013, 10.1016/j.fluid.2013.09.030
Compound 1: methanol, CH4O, purity 99.9%
Compound 2: dimethyl carbonate, C3H6O3, purity 99.9%
Compound 3: methyl phenyl carbonate, C8H8O3, purity 38%

System: methanol; phases: Liquid
Fixed: Pressure, kPa = 101.325
Property: Mass density, kg/m3 (Liquid); method: Vibrating tube method
Temperature, K	Mass density, kg/m3	uncertainty
298.15	786.69	.01

System: methanol; phases: Liquid
Fixed: Pressure, kPa = 101.325
Property: Refractive index (Na D-line) (Liquid); method: Standard Abbe refractometry
Temperature, K	Refractive index (Na D-line)	uncertainty
298.15	1.3267	.0001

System: methanol; phases: Liquid, Gas
Property: Vapor or sublimation pressure, kPa (Liquid); method: Ebulliometric method (Recirculating still)
Temperature, K	Vapor or sublimation pressure, kPa	uncertainty
338.12	101.3	.1

System: dimethyl carbonate; phases: Liquid
Fixed: Pressure, kPa = 101.325
Property: Mass density, kg/m3 (Liquid); method: Vibrating tube method
Temperature, K	Mass density, kg/m3	uncertainty
298.15	1063.26	.01

System: dimethyl carbonate; phases: Liquid
Fixed: Pressure, kPa = 101.325
Property: Refractive index (Na D-line) (Liquid); method: Standard Abbe refractometry
Temperature, K	Refractive index (Na D-line)	uncertainty
298.15	1.3666	.0001

System: dimethyl carbonate; phases: Liquid, Gas
Property: Vapor or sublimation pressure, kPa (Liquid); method: Ebulliometric method (Recirculating still)
Temperature, K	Vapor or sublimation pressure, kPa	uncertainty
363.25	101.3	.1

System: methyl phenyl carbonate; phases: Liquid
Fixed: Pressure, kPa = 101.325
Property: Mass density, kg/m3 (Liquid); method: Vibrating tube method
Temperature, K	Mass density, kg/m3	uncertainty
298.15	1143.63	.01

System: methyl phenyl carbonate; phases: Liquid
Fixed: Pressure, kPa = 101.325
Property: Refractive index (Na D-line) (Liquid); method: Standard Abbe refractometry
Temperature, K	Refractive index (Na D-line)	uncertainty
298.15	1.4948	.0001

System: methyl phenyl carbonate; phases: Liquid, Gas
Property: Boiling temperature at pressure P, K (Liquid); method: Ebulliometric method (Recirculating still)
Pressure, kPa	Boiling temperature at pressure P, K	uncertainty
3	378.81	.02
5	391.17	.02
10	409.87	.02
15	421.56	.02
20	430.23	.02
25	437.25	.02
30	443.16	.02
35	448.12	.02
40	452.73	.02
45	456.91	.02
50	460.67	.02
55	464.09	.02
60	467.21	.02
65	470.26	.02
70	473.02	.02
75	475.46	.02
80	477.91	.02
85	480.35	.02
90	482.69	.02
95	484.85	.02
100	486.71	.02
101.3	487.48	.02
102.1	487.66	.02

System: dimethyl carbonate + methyl phenyl carbonate; phases: Liquid, Gas
Fixed: Pressure, kPa = 101.3
Property: Boiling temperature at pressure P, K (Liquid); method: Ebulliometric method (Recirculating still)
Mole fraction of methyl phenyl carbonate	Boiling temperature at pressure P, K	uncertainty
0	363.25	.02
.1596	366.04	.02
.3091	370.38	.02
.3756	373.86	.02
.5229	380.92	.02
.6097	388.27	.02
.6821	394.42	.02
.7539	404.66	.02
.8054	412.45	.02
.8515	421.48	.02
.8825	430.55	.02
.9079	437.5	.02
.9212	443.09	.02
.9325	449.36	.02
.9451	455.87	.02
.9591	462.06	.02
.9688	467.02	.02
.9775	471.54	.02
.9858	475.8	.02
.9905	480.55	.02
.9963	484.12	.02
1	487.48	.02

System: dimethyl carbonate + methyl phenyl carbonate; phases: Gas, Liquid
Fixed: Pressure, kPa = 101.3
Property: Mole fraction of methyl phenyl carbonate (Gas); method: Chromatography
Mole fraction of methyl phenyl carbonate	Mole fraction of methyl phenyl carbonate	uncertainty
0	0	.0001
.1596	.005	.0001
.3091	.0095	.0001
.3756	.0098	.0001
.5229	.0177	.0001
.6097	.0328	.0001
.6821	.0494	.0001
.7539	.072	.0001
.8054	.0989	.0001
.8515	.1471	.0001
.8825	.1978	.0001
.9079	.2438	.0001
.9212	.2995	.0001
.9325	.3611	.0001
.9451	.4368	.0001
.9591	.5117	.0001
.9688	.5831	.0001
.9775	.6541	.0001
.9858	.7406	.0001
.9905	.8207	.0001
.9963	.8987	.0001
1	1	.0001

System: dimethyl carbonate + methyl phenyl carbonate; phases: Liquid
Fixed: Temperature, K = 298.15
Fixed: Pressure, kPa = 101
Property: Mass density, kg/m3 (Liquid); method: Vibrating tube method
Mole fraction of methyl phenyl carbonate	Mass density, kg/m3	uncertainty
.0499	1069.88	.01
.1	1076.1	.01
.2001	1087.37	.01
.2999	1097.32	.01
.4	1106.17	.01
.5002	1114.08	.01
.6	1121.17	.01
.7007	1127.6	.01
.8003	1133.42	.01
.8991	1138.71	.01
.9493	1141.22	.01

System: dimethyl carbonate + methyl phenyl carbonate; phases: Liquid
Fixed: Temperature, K = 298.15
Fixed: Pressure, kPa = 101
Property: Refractive index (Na D-line) (Liquid); method: Standard Abbe refractometry
Mole fraction of methyl phenyl carbonate	Refractive index (Na D-line)	uncertainty
.0499	1.3764	.0001
.1	1.3863	.0001
.2001	1.4038	.0001
.2999	1.419	.0001
.4	1.4336	.0001
.5002	1.4463	.0001
.6	1.4575	.0001
.7007	1.468	.0001
.8003	1.4774	.0001
.8991	1.4853	.0001
.9493	1.4901	.0001

System: methanol + methyl phenyl carbonate; phases: Liquid, Gas
Fixed: Pressure, kPa = 101.3
Property: Boiling temperature at pressure P, K (Liquid); method: Ebulliometric method (Recirculating still)
Mole fraction of methyl phenyl carbonate	Boiling temperature at pressure P, K	uncertainty
0	338.12	.02
.2912	338.58	.02
.5483	340.99	.02
.6616	345.8	.02
.7393	352.23	.02
.7956	358.2	.02
.8499	365.27	.02
.8901	375.12	.02
.9105	383.33	.02
.9312	391.76	.02
.9492	401.65	.02
.9587	409.31	.02
.9736	422.19	.02
.9788	431.33	.02
.9819	438.89	.02
.9876	445.02	.02
.9911	451.1	.02
.9932	457.42	.02
.9952	465.1	.02
.9976	473.7	.02
.999	481.7	.02
1	487.48	.02

System: methanol + methyl phenyl carbonate; phases: Gas, Liquid
Fixed: Pressure, kPa = 101.3
Property: Mole fraction of methyl phenyl carbonate (Gas); method: Chromatography
Mole fraction of methyl phenyl carbonate	Mole fraction of methyl phenyl carbonate	uncertainty
0	0	.0001
.2912	.0028	.0001
.5483	.0092	.0001
.6616	.0125	.0001
.7393	.0132	.0001
.7956	.0147	.0001
.8499	.0178	.0001
.8901	.0277	.0001
.9105	.0346	.0001
.9312	.0465	.0001
.9492	.0711	.0001
.9587	.0934	.0001
.9736	.1494	.0001
.9788	.2039	.0001
.9819	.2618	.0001
.9876	.3214	.0001
.9911	.385	.0001
.9932	.4609	.0001
.9952	.5612	.0001
.9976	.7065	.0001
.999	.8687	.0001
1	1	.0001

System: methanol + methyl phenyl carbonate; phases: Liquid
Fixed: Temperature, K = 298.15
Fixed: Pressure, kPa = 101
Property: Mass density, kg/m3 (Liquid); method: Vibrating tube method
Mole fraction of methyl phenyl carbonate	Mass density, kg/m3	uncertainty
.0501	842.07	.01
.1001	886.48	.01
.2002	953.27	.01
.3002	1000.92	.01
.4003	1036.71	.01
.5	1064.49	.01
.6013	1087.16	.01
.7008	1105.28	.01
.8003	1120.25	.01
.9015	1133.12	.01
.9471	1138.14	.01

System: methanol + methyl phenyl carbonate; phases: Liquid
Fixed: Temperature, K = 298.15
Fixed: Pressure, kPa = 101
Property: Refractive index (Na D-line) (Liquid); method: Standard Abbe refractometry
Mole fraction of methyl phenyl carbonate	Refractive index (Na D-line)	uncertainty
.0501	1.3647	.0001
.1001	1.3885	.0001
.2002	1.4283	.0001
.3002	1.45	.0001
.4003	1.467	.0001
.5	1.4748	.0001
.6013	1.4801	.0001
.7008	1.4848	.0001
.8003	1.4877	.0001
.9015	1.4915	.0001
.9471	1.4929	.0001
