Measured thermophysical data. Measurement of thermal diffusivity and speed of sound of dibutyl ether from 303.15 K to 673.15 K and up to 7.5 MPa
Source: Fluid Phase Equilib., 2016, 10.1016/j.fluid.2016.07.025
Compound 1: toluene, C7H8, purity 99.5%
Compound 2: dibutyl ether, C8H18O, purity 99.5%

System: dibutyl ether; phases: Fluid (supercritical or subcritical phases)
Property: Thermal diffusivity, m2/s (Fluid (supercritical or subcritical phases)); method: Rayleigh light scattering
Temperature, K	Pressure, kPa	Thermal diffusivity, m2/s	uncertainty
586.81	3500	.0000000416	
586.81	3750	.0000000441	
586.41	4000	.0000000465	
586.5	4500	.0000000506	
586.46	5500	.0000000546	
586.31	6500	.0000000563	
586.75	7500	.0000000573	
588.49	3500	.0000000314	
588.49	3750	.0000000409	
588.51	4000	.0000000455	
588.47	4500	.0000000504	
588.4	5500	.0000000544	
588.55	6500	.0000000562	
588.45	7500	.0000000573	
589.94	3500	.0000000286	
589.94	3750	.0000000386	
590.01	4000	.0000000446	
589.99	4500	.0000000501	
590.29	5500	.0000000542	
590.59	6500	.0000000561	
590.59	7500	.0000000573	
591.35	3500	.0000000302	
591.35	3750	.0000000362	
591.6	4000	.0000000436	
591.54	4500	.0000000499	
591.3	5500	.0000000541	
591.7	6500	.000000056	
591.52	7500	.0000000573	
592.77	3500	.0000000343	
592.77	3750	.0000000345	
592.77	3750	.0000000345	
592.89	4000	.0000000427	
592.89	4500	.0000000496	
593.39	5500	.0000000539	
593.77	6500	.0000000559	
593.77	7500	.0000000573	
594.85	3500	.0000000425	
594.73	3750	.0000000331	
594.73	4000	.0000000412	
594.02	4500	.0000000493	
595.35	5500	.0000000537	
596.74	6500	.0000000558	
596.74	7500	.0000000573	
596.78	3500	.000000054	
596.78	3750	.000000032	
596.07	4000	.0000000406	
595.98	4500	.0000000488	
596.85	5500	.0000000536	
598.89	6500	.0000000557	
598.89	7500	.0000000574	
598.96	3500	.0000000651	
598.96	3750	.0000000334	
599.04	4000	.000000039	
599.12	4500	.0000000477	
598.77	5500	.0000000534	
601.54	3500	.0000000751	
601.54	3750	.0000000406	
601.54	4000	.0000000383	
601.54	4500	.0000000472	
601.45	5500	.0000000532	
603.96	3500	.0000000855	
603.96	3750	.000000051	
603.12	4000	.0000000384	
603.05	4500	.0000000471	
603.99	5500	.0000000531	
603.27	6500	.0000000556	
603.27	7500	.0000000575	
606.15	3500	.0000000918	
606.15	3750	.0000000601	
606.15	4000	.0000000393	
606.15	4500	.0000000469	
608.76	3500	.0000000976	
608.76	3750	.000000068	
608.05	4000	.0000000403	
608.32	4500	.0000000468	
608.52	5500	.0000000529	
608.2	6500	.0000000556	
608.2	7500	.0000000577	
611.06	3500	.000000102	
611.06	3750	.0000000739	
611.06	4000	.0000000462	
611.06	4500	.0000000467	
613.13	3500	.0000001061	
613.13	3750	.0000000787	
613.1	4000	.0000000512	
613.18	4500	.0000000467	
612.76	5500	.0000000529	
613.44	6500	.0000000557	
613.44	7500	.000000058	

System: dibutyl ether; phases: Liquid
Property: Speed of sound, m/s (Liquid); method: Rayleigh light scattering
Temperature, K	Pressure, kPa	Speed of sound, m/s	uncertainty
586.81	3500	184.9	
586.44	4500	237.17	
586.46	5500	276.64	
586.51	6500	307.09	
586.75	7500	332.28	
598.96	3500	90.21	
599.73	4500	148.57	
599.77	5500	205.29	
599.79	6500	243.74	
599.89	7500	273.8	
614.13	3500	114.25	
612.41	4500	119.01	
612.76	5500	155.8	
612.76	5500	155.8	
612.08	6500	204.42	
612.44	7500	231.43	
628.37	3500	138.25	
627.48	4500	131.02	
627.58	5500	142.32	
628.12	6500	174.89	
628.37	7500	195.46	
643.67	3500	164.41	
644.29	4500	159.81	
644.15	5500	155.54	
644.05	6500	165.61	
644.35	7500	182.38	
659.26	3500	195.63	
658.91	4500	189.3	
657.54	5500	181.63	
659.56	6500	180.93	
659.71	7500	190.24	
672.69	3500	224.44	
673.3	4500	220	
589.94	3500	143.08	
590.03	4500	207.46	
590.29	5500	250.4	
590.47	6500	283.36	
590.59	7500	311.32	
603.96	3500	95.38	
603.82	4500	132.6	
603.99	5500	189.07	
604.21	6500	227.74	
604.27	7500	258.48	
617.77	3500	120.4	
617.26	4500	117.55	
617.59	5500	146.8	
617.59	5500	146.8	
617.89	6500	190.53	
618.03	7500	215.06	
633.02	3500	146.63	
632.52	4500	139.67	
632.87	5500	144.73	
633.36	6500	169.7	
633.89	7500	188.26	
649.66	3500	174.95	
649.31	4500	169.65	
649.22	5500	165.88	
648.28	6500	165.79	
648.38	7500	183.05	
663.77	3500	204.23	
663.99	4500	199.13	
664.68	5500	197.15	
664.58	6500	192.76	
663.28	7500	193.08	
673.3	5500	214.18	
673.38	6500	210.65	
592.77	3500	114.69	
593.04	4500	183.43	
593.39	5500	233.22	
593.6	6500	267.17	
593.77	7500	296.8	
607.76	3500	102.4	
607.34	4500	126.78	
607.52	5500	175.37	
607.96	6500	215.37	
608.2	7500	244.31	
624.61	3500	132.31	
622.62	4500	123.77	
622.88	5500	141.99	
622.88	5500	141.99	
623.3	6500	178.81	
623.42	7500	202.08	
640.05	3500	158.02	
637.28	4500	147.53	
637.84	5500	148.3	
636.92	6500	166.48	
637.41	7500	184.9	
652.78	3500	182.03	
653.61	4500	178.48	
653.1	5500	173.23	
651.37	6500	168.71	
651.47	7500	183.8	
668.2	3500	214.84	
668.18	4500	208.75	
668.06	5500	204.67	
668.13	6500	200.59	
668.28	7500	199.93	
673.39	7500	207.8	

System: dibutyl ether; phases: Liquid, Gas
Property: Speed of sound, m/s (Liquid); method: Rayleigh light scatter
Temperature, K	Speed of sound, m/s	uncertainty
303.15	1143.53	
318.15	1085.81	
333.15	1029	
348.15	973.04	
363.15	917.88	
373.15	881.52	
383.15	845.45	
393.15	809.66	
403.15	774.11	
413.15	738.78	
423.15	703.63	
433.15	668.62	
443.15	633.7	
453.15	598.83	
463.15	563.95	
473.15	528.99	
483.15	493.86	
493.15	458.48	
503.15	422.72	
508.15	404.65	
513.15	386.43	
518.15	368.04	
523.15	349.43	
528.15	330.59	
533.15	311.47	
538.15	292.02	
543.15	272.18	
548.15	251.88	
553.15	231.03	
558.15	209.5	
561.15	196.2	
564.15	182.53	
567.15	168.45	
570.15	153.86	
573.15	138.64	
576.15	122.58	
579.15	105.33	
582.15	86.01	

System: dibutyl ether; phases: Gas, Liquid
Property: Speed of sound, m/s (Gas); method: Rayleigh light scatter
Temperature, K	Speed of sound, m/s	uncertainty
453.15	155.84	
463.15	155.2	
473.15	153.97	
483.15	152.07	
493.15	149.44	
503.15	145.99	
508.15	143.93	
513.15	141.62	
518.15	139.06	
523.15	136.23	
528.15	133.13	
533.15	129.72	
538.15	126	
543.15	121.95	
548.15	117.54	
553.15	112.77	
558.15	107.6	
561.15	104.29	
564.15	100.83	
567.15	97.21	
570.15	93.4	
573.15	89.42	
576.15	85.25	
577.15	83.81	

System: dibutyl ether; phases: Liquid, Gas
Property: Thermal diffusivity, m2/s (Liquid); method: Rayleigh light scattering
Temperature, K	Thermal diffusivity, m2/s	uncertainty
303.15	.0000000707	
318.15	.0000000681	
333.15	.0000000656	
348.15	.0000000632	
363.15	.000000061	
373.15	.0000000595	
383.15	.0000000581	
393.15	.0000000567	
403.15	.0000000554	
413.15	.0000000542	
423.15	.000000053	
433.15	.0000000518	
443.15	.0000000506	
453.15	.0000000495	
463.15	.0000000485	
473.15	.0000000474	
483.15	.0000000464	
493.15	.0000000454	
503.15	.0000000445	
508.15	.000000044	
513.15	.0000000435	
518.15	.000000043	
523.15	.0000000425	
528.15	.0000000419	
533.15	.0000000414	
538.15	.0000000408	
543.15	.0000000402	
548.15	.0000000396	
553.15	.0000000389	
558.15	.0000000381	
561.15	.0000000375	
564.15	.0000000369	
567.15	.0000000362	
570.15	.0000000354	
573.15	.0000000344	
576.15	.000000033	
579.15	.000000031	

System: dibutyl ether; phases: Gas, Liquid
Property: Thermal diffusivity, m2/s (Gas); method: Rayleigh light scattering
Temperature, K	Thermal diffusivity, m2/s	uncertainty
543.15	.0000001984	
548.15	.0000001805	
553.15	.0000001631	
558.15	.0000001458	
561.15	.0000001351	
564.15	.0000001241	
567.15	.0000001125	
570.15	.0000001	
573.15	.0000000861	
576.15	.00000007	
579.15	.0000000502	
