Measured thermophysical data. Solid liquid equilibria of the ternary system m-nitrobenzoic  acid + p-nitrobenzoic acid + acetone
Source: Fluid Phase Equilib., 2009, 10.1016/j.fluid.2009.07.011
Compound 1: 3-nitrobenzoic acid, C7H5NO4, purity 99%
Compound 2: 4-nitrobenzoic acid, C7H5NO4, purity 99.2%
Compound 3: acetone, C3H6O

System: 4-nitrobenzoic acid + acetone + 3-nitrobenzoic acid; phases: Liquid, Crystal
Property: Mass density, kg/m3 (Liquid); method: Other
Temperature, K	Mass fraction of 3-nitrobenzoic acid	Mass fraction of 4-nitrobenzoic acid	Mass density, kg/m3	uncertainty
283.1	0	.0528	762.5	1.525
283.1	.0235	.0506	766.9	1.5338
283.1	.0527	.0444	774.2	1.5484
283.1	.0751	.0427	778.9	1.5578
283.1	.0996	.042	785.6	1.5712
283.1	.128	.0417	791.7	1.5834
283.1	.1794	.04	803.7	1.6074
283.1	.1996	.0392	807.7	1.6154
283.1	.2237	.039	812.1	1.6242
283.1	.2679	.0379	819.9	1.6398
283.1	.279	.0362	822.7	1.6454
313.1	0	.0889	782.5	1.565
313.1	.0509	.0857	788.2	1.5764
313.1	.0845	.0817	796.1	1.5922
313.1	.1897	.0726	813.9	1.6278
313.1	.2458	.0687	821.9	1.6438
313.1	.3044	.0666	831.6	1.6632
313.1	.3487	.0657	838.4	1.6768
313.1	.3718	.065	843.3	1.6866
313.1	.3865	.0747	844.6	1.6892

System: 4-nitrobenzoic acid + acetone + 3-nitrobenzoic acid; phases: Liquid, Crystal
Property: Mass density, kg/m3 (Liquid); method: Other
Temperature, K	Mass fraction of 3-nitrobenzoic acid	Mass fraction of 4-nitrobenzoic acid	Mass density, kg/m3	uncertainty
283.1	.2866	.029	823.4	1.6468
283.1	.3086	.0205	815.5	1.631
283.1	.3291	.0097	813	1.626
283.1	.3439	0	808.9	1.6178
313.1	.4062	.061	846.1	1.6922
313.1	.4319	.0452	840.4	1.6808
313.1	.4619	.0321	831.6	1.6632
313.1	.4948	.0155	824.8	1.6496
313.1	.5169	0	822.2	1.6444

System: 4-nitrobenzoic acid + acetone + 3-nitrobenzoic acid; phases: Liquid, Crystal
Property: Mass fraction of 4-nitrobenzoic acid (Liquid); method: Chromatography
Temperature, K	Mass fraction of 3-nitrobenzoic acid	Mass fraction of acetone	Mass fraction of 4-nitrobenzoic acid	uncertainty
283.1	.0528	.9472	0	.0005
283.1	.0506	.9259	.0235	.0005
283.1	.0444	.9029	.0527	.0005
283.1	.0427	.8822	.0751	.0005
283.1	.042	.8584	.0996	.0005
283.1	.0417	.8303	.128	.0005
283.1	.04	.7806	.1794	.0005
283.1	.0392	.7612	.1996	.0005
283.1	.039	.7373	.2237	.0005
283.1	.0379	.6942	.2679	.0005
283.1	.0362	.6848	.279	.0005
313.1	.0889	.9111	0	.0005
313.1	.0857	.8634	.0509	.0005
313.1	.0817	.8338	.0845	.0005
313.1	.0726	.7377	.1897	.0005
313.1	.0687	.6855	.2458	.0005
313.1	.0666	.629	.3044	.0005
313.1	.0657	.5856	.3487	.0005
313.1	.065	.5632	.3718	.0005
313.1	.0747	.5388	.3865	.0005

System: 4-nitrobenzoic acid + acetone + 3-nitrobenzoic acid; phases: Liquid, Crystal
Property: Mass fraction of 4-nitrobenzoic acid (Liquid); method: Chromatography
Temperature, K	Mass fraction of 3-nitrobenzoic acid	Mass fraction of acetone	Mass fraction of 4-nitrobenzoic acid	uncertainty
283.1	.2866	.6844	.029	.0005
283.1	.3086	.6709	.0205	.0005
283.1	.3291	.6612	.0097	.0005
283.1	.3439	.6561	0	.0005
313.1	.4062	.5328	.061	.0005
313.1	.4319	.5229	.0452	.0005
313.1	.4619	.506	.0321	.0005
313.1	.4948	.4897	.0155	.0005
313.1	.5169	.4831	0	.0005
