Measured thermophysical data. Fluid phase equilibria in the binary system trifluoromethane + 1-phenyloctane
Source: Fluid Phase Equilib., 2010, 10.1016/j.fluid.2010.04.013
Compound 1: trifluoromethane, CHF3
Compound 2: octylbenzene, C14H22

System: trifluoromethane + octylbenzene; phases: Liquid mixture 1, Gas, Liquid mixture 2
Property: Critical pressure, kPa (Liquid mixture 1); method: static Cailletet method
Critical pressure, kPa	uncertainty
4877	10

System: trifluoromethane + octylbenzene; phases: Liquid mixture 1, Gas, Liquid mixture 2
Property: Critical temperature, K (Liquid mixture 1); method: static Cailletet method
Critical temperature, K	uncertainty
300.11	.01

System: trifluoromethane + octylbenzene; phases: Liquid, Gas
Property: Vapor or sublimation pressure, kPa (Liquid); method: static Cailletet method
Mole fraction of trifluoromethane	Temperature, K	Vapor or sublimation pressure, kPa	uncertainty
.1002	273.54	781	3
.1002	278.48	856	3
.1002	283.63	931	3
.1002	288.62	1011	3
.1002	293.45	1086	3
.1002	303.48	1246	3
.1002	313.46	1411	3
.1002	323.44	1576	3
.1002	333.54	1741	3
.1002	343.41	1901	3
.1002	353.53	2051	3
.1002	363.57	2196	3
.1002	368.62	2266	3
.1982	248.59	890	3
.1982	253.42	1010	3
.1982	258.5	1135	3
.1982	263.45	1270	3
.1982	268.44	1415	3
.1982	273.48	1570	3
.1982	278.56	1734	3
.1982	283.55	1884	3
.1982	288.51	2060	3
.1982	293.51	2241	3
.1982	298.45	2406	3
.1982	303.47	2604	3
.1982	308.49	2784	3
.1982	313.45	2969	3
.1982	323.42	3333	3
.1982	328.41	3508	3
.1982	333.49	3705	3
.1982	338.49	3884	3
.1982	343.52	4060	3
.1982	348.48	4229	3
.1982	353.51	4410	3
.1982	363.54	4715	3
.1982	368.63	4880	3
.2507	248.67	1087	3
.2507	253.52	1237	3
.2507	258.51	1412	3
.2507	263.36	1572	3
.2507	273.45	1962	3
.2507	283.47	2392	3
.2507	288.54	2622	3
.2507	293.49	2857	3
.2507	298.47	3097	3
.2507	303.58	3347	3
.2507	313.49	3847	3
.2507	323.48	4347	3
.2507	333.44	4843	3
.2507	343.52	5322	3
.2507	353.43	5762	3
.2507	368.65	6397	3
.3003	258.55	1647	3
.3003	259.5	1681	3
.3003	260.03	1706	3
.3003	260.22	1716	3
.3003	260.64	1736	3
.3003	262.57	1821	3
.3003	268.47	2090	3
.3003	273.55	2345	3
.3003	276.5	2500	3
.3003	278.59	2615	3
.3003	283.5	2890	3
.3003	288.53	3185	3
.3003	293.45	3490	3
.3003	298.54	3815	3
.3003	303.5	4135	3
.3003	313.46	4800	3
.3003	323.41	5460	3
.3003	328.46	5780	3
.3003	338.46	6415	3
.3003	348.54	7010	3
.3215	272.94	2448	3
.3215	273.66	2498	3
.3215	274.03	2513	3
.3215	274.15	2528	3
.3215	275.56	2598	3
.3215	278.44	2778	3
.3215	283.45	3083	3
.3215	288.44	3413	3
.3215	303.65	4503	3
.3215	313.46	5243	3
.3215	323.45	5983	3
.3215	333.45	6693	3
.3215	343.5	7363	3
.3215	353.53	7963	3
.3215	368.68	8779	3
.3505	298.47	4703	3
.3505	299.71	4789	3
.3505	299.97	4814	3
.3505	301.44	4954	3
.3505	303.43	5108	3
.3505	308.45	5614	3
.3505	316.65	6360	3
.3505	323.44	6900	3
.3505	333.57	7729	3
.3505	343.44	8458	3
.3505	353.58	9104	3
.3505	368.6	9974	3
1	253.34	1405	3
1	258.27	1635	3
1	263.18	1890	3
1	268.17	2175	3
1	273.2	2500	3
1	278.33	2865	3
1	283.31	3260	3
1	288.35	3695	3
1	293.29	4175	3
1	298.95	4790	3

System: trifluoromethane + octylbenzene; phases: Liquid mixture 1, Liquid mixture 2
Property: Phase boundary pressure, kPa (Liquid mixture 1); method: static Cailletet method
Temperature, K	Mole fraction of trifluoromethane	Phase boundary pressure, kPa	uncertainty
260.22	.3003	1716	10
261	.3003	2150	10
261.01	.3003	2651	10
261.02	.3003	3050	10
261.15	.3003	3650	10
261.51	.3003	4650	10
261.45	.3003	5650	10
261.75	.3003	6650	10
261.97	.3003	7651	10
262.32	.3003	8650	10
262.61	.3003	9651	10
262.72	.3003	10651	10
272.97	.3215	2648	10
272.85	.3215	2748	10
272.86	.3215	2898	10
272.53	.3215	3149	10
272.19	.3215	3399	10
270.88	.3215	4389	10
269.82	.3215	5398	10
268.76	.3215	6398	10
267.96	.3215	7648	10
267.26	.3215	8648	10
267.06	.3215	9648	10
266.84	.3215	11648	10
292.58	.3505	4849	10
290.65	.3505	5149	10
287.51	.3505	6149	10
284.85	.3505	7399	10
283.3	.3505	8399	10
282.2	.3505	9399	10
280.03	.3505	11898	10
289.6	.3631	11897	10
292.08	.3631	10147	10
292.93	.3631	9647	10
294.87	.3631	8647	10
297.87	.3631	7645	10
300.64	.3631	7044	10
303.5	.3631	6729	10
308.45	.3631	6649	10
311.51	.3631	6745	10
313.48	.3631	6874	10
315.43	.3631	7009	10
323.42	.3631	7625	10
333.44	.3631	8410	10
343.52	.3631	9145	10
353.53	.3631	9785	10
363.58	.3631	10395	10
368.62	.3631	10659	10
301.43	.3777	11895	10
303.54	.3777	10946	10
306.48	.3777	10165	10
308.79	.3777	9746	10
313.4	.3777	9105	10
318.49	.3777	8925	10
323.5	.3777	9060	10
328.45	.3777	9251	10
333.47	.3777	9521	10
338.46	.3777	9806	10
343.57	.3777	10141	10
348.55	.3777	10495	10
358.61	.3777	11051	10
368.64	.3777	11576	10

System: trifluoromethane + octylbenzene; phases: Liquid mixture 1, Liquid mixture 2, Gas
Property: Vapor or sublimation pressure, kPa (Liquid mixture 1); method: static Cailletet method
Temperature, K	Vapor or sublimation pressure, kPa	uncertainty
248.59	1206	10
253.55	1416	10
258.49	1614	10
263.47	1901	10
268.5	2186	10
273.53	2511	10
278.5	2901	10
283.57	3300	10
288.46	3680	10
293.47	4250	10
297.45	4577	10
298.44	4687	10
298.46	4802	10
299.97	4857	10

System: trifluoromethane + octylbenzene; phases: Liquid, Gas
Property: Critical pressure, kPa (Liquid); method: static Cailette method
Mole fraction of trifluoromethane	Critical pressure, kPa	uncertainty
1	4790	3

System: trifluoromethane + octylbenzene; phases: Liquid, Gas
Property: Critical temperature, K (Liquid); method: static Cailletet method
Mole fraction of trifluoromethane	Critical temperature, K	uncertainty
1	298.95	.01
