Measured thermophysical data. Gas phase PVT properties and second virial coefficients of dimethyl ether
Source: Fluid Phase Equilib., 2010, 10.1016/j.fluid.2010.08.023
Compound 1: dimethyl ether, C2H6O, purity 99.95%

System: dimethyl ether; phases: Liquid
Property: Amount density, mol/m3 (Liquid); method: Burnett expansion method
Temperature, K	Pressure, kPa	Amount density, mol/m3	uncertainty
403.158	4733.06	2475.6	3.7134
403.158	3841.25	1664.8	2.4972
403.156	2927.55	1119.6	1.6794
403.156	2138.71	752.9	1.12935
403.158	1519.57	506.3	.75945
403.156	1059.84	340.5	.51075
403.158	730.57	229	.3435
403.157	499.16	154	.231
403.158	339.48	103.6	.1554
398.156	4565.88	2476.9	3.71535
398.159	3741.65	1665.7	2.49855
398.155	2867.09	1120.2	1.6803
398.157	2101.37	753.3	1.12995
398.156	1495.8	506.6	.7599
398.158	1044.87	340.7	.51105
398.158	720.62	229.1	.34365
398.156	492.84	154.1	.23115
398.156	335.21	103.6	.1554
393.158	4395.55	2477.6	3.7164
393.155	3640.73	1666.2	2.4993
393.157	2806.12	1120.5	1.68075
393.155	2063.55	753.5	1.13025
393.154	1471.94	506.8	.7602
393.158	1029.5	340.8	.5112
393.157	710.63	229.2	.3438
393.157	486.27	154.1	.23115
393.158	330.86	103.6	.1554
388.157	4220.5	2478	3.717
388.156	3538.71	1666.5	2.49975
388.156	2744.65	1120.7	1.68105
388.154	2025.44	753.7	1.13055
388.159	1448.04	506.8	.7602
388.157	1014.06	340.8	.5112
388.16	700.55	229.2	.3438
388.158	479.65	154.1	.23115
388.162	326.51	103.7	.15555
382.996	3406.83	1647.2	2.4708
382.996	2655.81	1107.7	1.66155
382.995	1965.49	744.9	1.11735
382.996	1407.5	501	.7515
383	986.82	336.9	.50535
383	682.09	226.6	.3399
382.997	467.45	152.4	.2286
382.992	318.19	102.5	.15375
382.994	215.78	68.9	.10335
378.014	3303.14	1646.8	2.4702
378.013	2594.1	1107.5	1.66125
378.016	1927.59	744.8	1.1172
378.014	1383.62	500.9	.75135
378.012	971.27	336.8	.5052
378.008	671.85	226.5	.33975
378.016	460.81	152.3	.22845
378.014	313.76	102.4	.1536
378.016	212.86	68.9	.10335
373.02	3195.58	1647	2.4705
373.021	2531.49	1107.6	1.6614
373.024	1889.34	744.8	1.1172
373.02	1359.61	500.9	.75135
373.022	955.93	336.9	.50535
373.017	661.95	226.5	.33975
373.024	454.2	152.3	.22845
373.022	309.43	102.5	.15375
373.022	209.92	68.9	.10335
368.018	2467.91	1107.9	1.66185
368.022	1850.74	745	1.1175
368.023	1335.41	501	.7515
368.019	940.38	337	.5055
368.019	652.12	226.6	.3399
368.023	447.53	152.4	.2286
368.021	305.04	102.5	.15375
368.019	207	68.9	.10335
363.019	2403.43	1108	1.662
363.022	1811.72	745.1	1.11765
363.026	1311.03	501.1	.75165
363.024	924.85	337	.5055
363.024	642.03	226.6	.3399
363.025	440.91	152.4	.2286
363.024	300.68	102.5	.15375
363.023	204.08	68.9	.10335
358.023	2337.38	1108.2	1.6623
358.026	1772.23	745.3	1.11795
358.02	1286.32	501.2	.7518
358.025	909.35	337	.5055
358.025	631.95	226.7	.34005
358.027	434.3	152.4	.2286
358.026	296.29	102.5	.15375
358.024	201.18	68.9	.10335
353.027	1732.3	745.3	1.11795
353.029	1261.72	501.2	.7518
353.03	893.51	337.1	.50565
353.031	621.78	226.7	.34005
353.03	427.63	152.4	.2286
353.03	291.86	102.5	.15375
353.029	198.27	68.9	.10335
348.028	1691.91	745.2	1.1178
348.03	1236.94	501.1	.75165
348.029	877.65	337	.5055
348.03	611.6	226.6	.3399
348.03	420.91	152.4	.2286
348.03	287.42	102.5	.15375
348.03	195.31	68.9	.10335
343.046	1650.74	745	1.1175
343.047	1211.97	501	.7515
343.044	861.89	336.9	.50535
343.045	601.4	226.6	.3399
343.046	414.21	152.4	.2286
343.045	283	102.5	.15375
343.047	192.3	68.9	.10335
338.047	1186.66	500.9	.75135
338.042	845.93	336.8	.5052
338.045	591.16	226.5	.33975
338.04	407.51	152.3	.22845
338.045	278.56	102.4	.1536
338.04	189.3	68.9	.10335
333.047	1161	500.8	.7512
333.039	829.9	336.8	.5052
333.041	580.79	226.5	.33975
333.044	400.85	152.3	.22845
333.041	274.03	102.4	.1536
333.042	186.37	68.9	.10335
328.051	1134.74	501	.7515
328.044	813.73	336.9	.50535
328.046	570.48	226.6	.3399
328.048	394.14	152.4	.2286
328.042	269.73	102.5	.15375
328.047	183.47	68.9	.10335

System: dimethyl ether; phases: Liquid
Property: 2nd virial coefficient, m3/mol (Liquid); method: Derived analytically
Temperature, K	2nd virial coefficient, m3/mol	uncertainty
403.157	-.0002153	.000003
398.157	-.0002219	.000003
393.157	-.0002287	.000003
388.158	-.0002355	.000003
382.996	-.0002444	.000003
378.014	-.0002513	.000003
373.021	-.0002586	.000003
368.021	-.0002672	.000003
363.023	-.0002755	.000003
358.025	-.0002843	.000003
353.029	-.0002939	.000003
348.03	-.0003025	.000003
343.046	-.0003105	.000003
338.043	-.0003209	.000003
333.042	-.000328	.000003
328.046	-.000342	.000003

System: dimethyl ether; phases: Liquid
Property: 3rd virial coefficient, m6/mol2 (Liquid); method: Derived analytically
Temperature, K	3rd virial coefficient, m6/mol2	uncertainty
403.157	.00000001686	.0000000035
398.157	.000000017374	.0000000035
393.157	.000000017805	.0000000035
388.158	.000000018113	.0000000035
382.996	.000000019194	.0000000035
378.014	.000000019185	.0000000035
373.021	.000000019012	.0000000035
368.021	.000000019565	.0000000035
363.023	.000000019512	.0000000035
358.025	.000000019253	.0000000035
353.029	.000000019614	.0000000035
348.03	.000000018072	.0000000035
343.046	.000000014764	.0000000035
338.043	.000000013552	.0000000035
333.042	.000000006441	.0000000035
328.046	.000000006366	.0000000035
