Measured thermophysical data. Separation of methyl acetate + methanol azeotropic mixture using ionic liquids as entrainers
Source: Fluid Phase Equilib., 2015, 10.1016/j.fluid.2015.04.018
Compound 1: 1-butyl-3-methylimidazolium chloride, C8H15ClN2, purity 99%
Compound 2: 1-(2-chloroethyl)-3-methyl-1H-imidazol-3-ium chloride, C6H10Cl2N2, purity 99%
Compound 3: 1-butyl-3-methylimidazolium bromide, C8H15BrN2, purity 99%
Compound 4: methyl acetate, C3H6O2, purity 99.5%
Compound 5: methanol, CH4O, purity 99.5%

System: methanol + methyl acetate; phases: Gas, Liquid
Property: Mole fraction of methyl acetate (Gas); method: Chromatography
Mole fraction of methyl acetate	Pressure, kPa	Mole fraction of methyl acetate	uncertainty
0	101.3	0	.001
.01	101.3	.033	.001
.03	101.3	.091	.001
.061	101.3	.166	.001
.081	101.3	.208	.001
.121	101.3	.279	.001
.162	101.3	.336	.001
.212	101.3	.394	.001
.263	101.3	.44	.001
.303	101.3	.472	.001
.354	101.3	.506	.001
.424	101.3	.546	.001
.495	101.3	.581	.001
.576	101.3	.62	.001
.647	101.3	.656	.001
.737	101.3	.707	.001
.828	101.3	.772	.001
.91	101.3	.856	.001
.95	101.3	.911	.001
.98	101.3	.96	.001
1	101.3	1	.001

System: methanol + methyl acetate; phases: Liquid, Gas
Property: Boiling temperature at pressure P, K (Liquid); method: Ebulliometric method (Recirculating still)
Mole fraction of methyl acetate	Pressure, kPa	Boiling temperature at pressure P, K	uncertainty
0	101.3	337.69	.05
.01	101.3	337.1	.05
.03	101.3	336.03	.05
.061	101.3	334.62	.05
.081	101.3	333.81	.05
.121	101.3	332.41	.05
.162	101.3	331.28	.05
.212	101.3	330.16	.05
.263	101.3	329.28	.05
.303	101.3	328.72	.05
.354	101.3	328.16	.05
.424	101.3	327.58	.05
.495	101.3	327.17	.05
.576	101.3	326.89	.05
.647	101.3	326.77	.05
.737	101.3	326.85	.05
.828	101.3	327.27	.05
.91	101.3	328.14	.05
.95	101.3	328.87	.05
.98	101.3	329.6	.05
1	101.3	330.2	.05

System: methanol + methyl acetate + 1-butyl-3-methylimidazolium chloride; phases: Liquid, Gas
Fixed: Pressure, kPa = 101.3
Property: Boiling temperature at pressure P, K (Liquid); method: Ebulliometric method (Recirculating still)
Solvent: Mole fraction of methyl acetate	Mass fraction of 1-butyl-3-methylimidazolium chloride	Boiling temperature at pressure P, K	uncertainty
0	.1	338.26	.05
.022	.1	336.8	.05
.035	.1	336.08	.05
.049	.1	335.33	.05
.071	.1	334.3	.05
.109	.1	332.86	.05
.147	.1	331.71	.05
.216	.1	330.17	.05
.285	.1	329.17	.05
.356	.1	328.5	.05
.426	.1	328.1	.05
.499	.1	327.88	.05
.56	.1	327.82	.05
.633	.1	327.9	.05
.709	.1	328.15	.05
.766	.1	328.47	.05
.846	.1	329.16	.05
.911	.1	330	.05
1	.1	331.77	.05
0	.2	339.21	.05
.038	.2	336.74	.05
.07	.2	335.14	.05
.103	.2	333.8	.05
.165	.2	331.91	.05
.221	.2	330.79	.05
.297	.2	329.77	.05
.367	.2	329.24	.05
.429	.2	329	.05
.505	.2	328.92	.05
.576	.2	329.04	.05
.632	.2	329.24	.05
.685	.2	329.51	.05
.733	.2	329.83	.05
.785	.2	330.28	.05
.832	.2	330.75	.05
.875	.2	331.28	.05
.927	.2	332.04	.05
1	.2	333.37	.05
0	.3	340.71	.05
.062	.3	336.76	.05
.08	.3	335.93	.05
.107	.3	334.82	.05
.14	.3	333.77	.05
.206	.3	332.21	.05
.274	.3	331.24	.05
.331	.3	330.75	.05
.395	.3	330.48	.05
.461	.3	330.42	.05
.524	.3	330.54	.05
.585	.3	330.78	.05
.644	.3	331.12	.05
.71	.3	331.62	.05
.769	.3	332.17	.05
.814	.3	332.66	.05
.862	.3	333.23	.05
.91	.3	333.89	.05
1	.3	335.34	.05

System: methanol + methyl acetate + 1-(2-chloroethyl)-3-methyl-1H-imidazol-3-ium chloride; phases: Liquid, Gas
Fixed: Pressure, kPa = 101.3
Property: Boiling temperature at pressure P, K (Liquid); method: Ebulliometric method (Recirculating still)
Solvent: Mole fraction of methyl acetate	Mass fraction of 1-(2-chloroethyl)-3-methyl-1H-imidazol-3-ium chloride	Boiling temperature at pressure P, K	uncertainty
0	.1	338.34	.05
.023	.1	336.88	.05
.039	.1	335.96	.05
.087	.1	333.79	.05
.125	.1	332.5	.05
.155	.1	331.67	.05
.19	.1	330.89	.05
.226	.1	330.22	.05
.292	.1	329.33	.05
.338	.1	328.88	.05
.383	.1	328.56	.05
.413	.1	328.39	.05
.485	.1	328.05	.05
.594	.1	328.05	.05
.685	.1	328.23	.05
.756	.1	328.55	.05
.844	.1	329.29	.05
.898	.1	329.97	.05
.939	.1	330.72	.05
1	.1	332.15	.05
0	.2	339.3	.05
.029	.2	337.44	.05
.046	.2	336.51	.05
.086	.2	334.71	.05
.119	.2	333.53	.05
.144	.2	332.81	.05
.18	.2	331.93	.05
.244	.2	330.82	.05
.309	.2	330.08	.05
.351	.2	329.77	.05
.409	.2	329.49	.05
.457	.2	329.37	.05
.506	.2	329.34	.05
.556	.2	329.39	.05
.62	.2	329.57	.05
.725	.2	330.12	.05
.779	.2	330.56	.05
.836	.2	331.15	.05
.955	.2	332.75	.05
1	.2	333.76	.05
0	.3	340.85	.05
.017	.3	339.47	.05
.037	.3	338.28	.05
.052	.3	337.49	.05
.072	.3	336.53	.05
.111	.3	335.03	.05
.15	.3	333.87	.05
.18	.3	333.16	.05
.208	.3	332.64	.05
.232	.3	332.27	.05
.302	.3	331.49	.05
.362	.3	331.13	.05
.391	.3	330.97	.05
.426	.3	330.98	.05
.478	.3	330.98	.05
.549	.3	331.15	.05
.665	.3	331.79	.05
.787	.3	332.88	.05
.89	.3	334.59	.05
1	.3	336.86	.05

System: methanol + methyl acetate + 1-butyl-3-methylimidazolium bromide; phases: Liquid, Gas
Fixed: Pressure, kPa = 101.3
Property: Boiling temperature at pressure P, K (Liquid); method: Ebulliometric method (Recirculating still)
Solvent: Mole fraction of methyl acetate	Mass fraction of 1-butyl-3-methylimidazolium bromide	Boiling temperature at pressure P, K	uncertainty
0	.1	338.09	.05
.08	.1	333.91	.05
.093	.1	333.4	.05
.109	.1	332.85	.05
.124	.1	332.38	.05
.159	.1	331.45	.05
.195	.1	330.64	.05
.201	.1	330.53	.05
.275	.1	329.37	.05
.306	.1	329.01	.05
.407	.1	328.21	.05
.499	.1	327.82	.05
.601	.1	327.68	.05
.695	.1	327.81	.05
.765	.1	328.1	.05
.835	.1	328.63	.05
.897	.1	329.36	.05
.934	.1	329.96	.05
1	.1	331.5	.05
0	.2	338.67	.05
.038	.2	336.38	.05
.07	.2	334.89	.05
.083	.2	334.33	.05
.107	.2	333.49	.05
.142	.2	332.44	.05
.189	.2	331.33	.05
.267	.2	330.09	.05
.343	.2	329.32	.05
.412	.2	328.91	.05
.472	.2	328.7	.05
.528	.2	328.62	.05
.636	.2	328.71	.05
.69	.2	328.9	.05
.743	.2	329.17	.05
.807	.2	329.65	.05
.856	.2	330.17	.05
.933	.2	331.3	.05
1	.2	332.78	.05
0	.3	339.49	.05
.062	.3	336	.05
.101	.3	334.48	.05
.137	.3	333.36	.05
.22	.3	331.61	.05
.266	.3	330.97	.05
.306	.3	330.56	.05
.365	.3	330.13	.05
.419	.3	329.91	.05
.475	.3	329.8	.05
.53	.3	329.8	.05
.585	.3	329.89	.05
.637	.3	330.06	.05
.709	.3	330.44	.05
.782	.3	331	.05
.806	.3	331.24	.05
.867	.3	331.95	.05
.931	.3	332.94	.05
1	.3	334.36	.05
