Measured thermophysical data. The choice of solvent and liquid liquid equilibrium for ternary  water + 2-methylaziridine + chloroform system: Experimental data and modeling
Source: Fluid Phase Equilib., 2013, 10.1016/j.fluid.2012.11.018
Compound 1: DL-2-methylaziderine, C3H7N
Compound 2: methane, trichloro-, CHCl3, purity 99.5%
Compound 3: water, H2O, purity 99.9%

System: DL-2-methylaziderine; phases: Liquid
Fixed: Pressure, kPa = 101.325
Property: Mass density, kg/m3 (Liquid); method: Vibrating tube method
Temperature, K	Mass density, kg/m3	uncertainty
298.2	802.23	.01

System: DL-2-methylaziderine; phases: Liquid
Fixed: Pressure, kPa = 101.325
Property: Refractive index (Na D-line) (Liquid); method: Standard Abbe refractometry
Temperature, K	Refractive index (Na D-line)	uncertainty
298.2	1.4116	.0001

System: methane, trichloro-; phases: Liquid
Fixed: Pressure, kPa = 101.325
Property: Mass density, kg/m3 (Liquid); method: Vibrating tube method
Temperature, K	Mass density, kg/m3	uncertainty
298.2	1480.34	.01

System: methane, trichloro-; phases: Liquid
Fixed: Pressure, kPa = 101.325
Property: Refractive index (Na D-line) (Liquid); method: Standard Abbe refractometry
Temperature, K	Refractive index (Na D-line)	uncertainty
298.2	1.4456	.0001

System: water; phases: Liquid
Fixed: Pressure, kPa = 101.325
Property: Refractive index (Na D-line) (Liquid); method: Standard Abbe refractometry
Temperature, K	Refractive index (Na D-line)	uncertainty
298.2	1.333	.0001

System: methane, trichloro- + DL-2-methylaziderine + water; phases: Liquid mixture 1, Liquid mixture 2
Property: Mass fraction of water (Liquid mixture 1); method: Titration method
Property: Mass fraction of DL-2-methylaziderine (Liquid mixture 2); method: Titration method
Property: Mass fraction of methane, trichloro- (Liquid mixture 2); method: Titration method
Temperature, K	Pressure, kPa	Mass fraction of DL-2-methylaziderine	Mass fraction of water	uncertainty	Mass fraction of DL-2-methylaziderine	uncertainty	Mass fraction of methane, trichloro-	uncertainty
288.2	101.325	.0033	.9886	.0005	.0007	.0005	.9984	.0005
288.2	101.325	.039	.9503	.0005	.0095	.0005	.9895	.0005
288.2	101.325	.0601	.9276	.0005	.016	.0005	.9829	.0005
288.2	101.325	.0739	.9128	.0005	.0208	.0005	.978	.0005
288.2	101.325	.0841	.9019	.0005	.0256	.0005	.9732	.0005
288.2	101.325	.1089	.8753	.0005	.0344	.0005	.9643	.0005
288.2	101.325	.1621	.8183	.0005	.0529	.0005	.9458	.0005
288.2	101.325	.192	.7862	.0005	.0642	.0005	.9345	.0005
298.2	101.325	.004	.9878	.0005	.0008	.0005	.9984	.0005
298.2	101.325	.031	.9581	.0005	.0079	.0005	.9911	.0005
298.2	101.325	.0616	.9261	.0005	.0176	.0005	.9813	.0005
298.2	101.325	.0703	.9167	.0005	.0214	.0005	.9774	.0005
298.2	101.325	.0834	.9026	.0005	.0272	.0005	.9715	.0005
298.2	101.325	.1075	.8769	.0005	.0368	.0005	.9618	.0005
298.2	101.325	.1577	.823	.0005	.0551	.0005	.9434	.0005
298.2	101.325	.1927	.7855	.0005	.068	.0005	.9304	.0005
313.2	101.325	.0036	.9883	.0005	.0008	.0005	.9985	.0005
313.2	101.325	.039	.9503	.0005	.0105	.0005	.9885	.0005
313.2	101.325	.0571	.9306	.0005	.0169	.0005	.982	.0005
313.2	101.325	.0719	.9148	.0005	.023	.0005	.9758	.0005
313.2	101.325	.0821	.9039	.0005	.0276	.0005	.9711	.0005
313.2	101.325	.1029	.8813	.0005	.0364	.0005	.9622	.0005
313.2	101.325	.1601	.8203	.0005	.0579	.0005	.9406	.0005
313.2	101.325	.191	.7872	.0005	.0702	.0005	.9282	.0005
