Measured thermophysical data. CO2 absorption into aqueous potassium salts of lysine and proline: Density, viscosity and solubility of CO2
Source: Fluid Phase Equilib., 2015, 10.1016/j.fluid.2015.04.021
Compound 1: ethanolamine, C2H7NO, purity 99%
Compound 2: carbon dioxide, CO2
Compound 3: water, H2O, purity 99.9%
Compound 4: potassium lysinate, C6H13KN2O2, purity 95%
Compound 5: potassium L-prolinate, C5H8KNO2, purity 95%
Compound 6: potassium carbonate, CK2O3, purity 95%

System: ethanolamine; phases: Liquid
Fixed: Pressure, kPa = 101.325
Property: Mass density, kg/m3 (Liquid); method: Vibrating tube method
Temperature, K	Mass density, kg/m3	uncertainty
303.15	1007.7	.1
313.15	999.8	.1
323.15	991.7	.1
333.15	983.7	.1
343.15	975.5	.1

System: ethanolamine; phases: Liquid
Fixed: Pressure, kPa = 101.325
Property: Viscosity, Pa*s (Liquid); method: Falling or rolling sphere viscometry
Temperature, K	Viscosity, Pa*s	uncertainty
303.15	.014605	.000073025
313.15	.0097244	.000048622
323.15	.0068067	.0000340335
333.15	.0049695	.0000248475
343.15	.0037838	.000018919

System: water; phases: Liquid
Fixed: Pressure, kPa = 101.325
Property: Mass density, kg/m3 (Liquid); method: Vibrating tube method
Temperature, K	Mass density, kg/m3	uncertainty
293.15	998.2	.1
298.15	997.1	.1
303.15	995.7	.1
308.15	994	.1
313.15	992.2	.1
318.15	990.2	.1

System: water; phases: Liquid
Fixed: Pressure, kPa = 101.325
Property: Viscosity, Pa*s (Liquid); method: Falling or rolling sphere viscometry
Temperature, K	Viscosity, Pa*s	uncertainty
303.15	.014605	.000073025
313.15	.0097244	.000048622
323.15	.0068067	.0000340335
333.15	.0049695	.0000248475
343.15	.0037838	.000018919

System: water + potassium lysinate; phases: Liquid
Fixed: Pressure, kPa = 101.3
Property: Mass density, kg/m3 (Liquid); method: Vibrating tube method
Amount concentration (molarity), mol/dm3 of potassium lysinate	Temperature, K	Mass density, kg/m3	uncertainty
.2001	298.15	1010.5	.1
.25	298.15	1017.5	.1
.5	298.15	1028.2	.1
.75	298.15	1043.2	.1
1.0082	298.15	1056	.1
1.5291	298.15	1084.8	.1
1.79	298.15	1111	.1
1.9999	298.15	1121.6	.1
2.5	298.15	1141.9	.1
3	298.15	1151	.1
.2001	303.15	1009	.1
.25	303.15	1016	.1
.5	303.15	1027.1	.1
.75	303.15	1041.4	.1
1.0082	303.15	1054.1	.1
1.5291	303.15	1082.7	.1
1.79	303.15	1108.6	.1
1.9999	303.15	1119.1	.1
2.5	303.15	1139.1	.1
3	303.15	1148.3	.1
.2001	308.15	1007.3	.1
.25	308.15	1014.2	.1
.5	308.15	1025.2	.1
.75	308.15	1039.5	.1
1.0082	308.15	1052	.1
1.5291	308.15	1080.4	.1
1.79	308.15	1106	.1
1.9999	308.15	1116.5	.1
2.5	308.15	1136.4	.1
3	308.15	1145.5	.1
.2001	313.15	1005.4	.1
.25	313.15	1012.3	.1
.5	313.15	1023.2	.1
.75	313.15	1037.3	.1
1.0082	313.15	1049.8	.1
1.5291	313.15	1077.9	.1
1.79	313.15	1103.4	.1
1.9999	313.15	1113.8	.1
2.5	313.15	1133.5	.1
3	313.15	1142.6	.1
.2001	318.15	1003.3	.1
.25	318.15	1010.2	.1
.5	318.15	1021	.1
.75	318.15	1035.1	.1
1.0082	318.15	1047.5	.1
1.5291	318.15	1075.4	.1
1.79	318.15	1100.8	.1
1.9999	318.15	1111	.1
2.5	318.15	1130.6	.1
3	318.15	1139.7	.1
.2001	323.15	1001.1	.1
.25	323.15	1007.9	.1
.5	323.15	1018.6	.1
.75	323.15	1032.7	.1
1.0082	323.15	1045	.1
1.5291	323.15	1072.8	.1
1.79	323.15	1098.1	.1
1.9999	323.15	1108.1	.1
2.5	323.15	1127.6	.1
3	323.15	1136.7	.1
.2001	328.15	998.6	.1
.25	328.15	1005.4	.1
.5	328.15	1016.2	.1
.75	328.15	1030.1	.1
1.0082	328.15	1042.4	.1
1.5291	328.15	1070.1	.1
1.79	328.15	1095.2	.1
1.9999	328.15	1105.2	.1
2.5	328.15	1124.6	.1
3	328.15	1133.7	.1
.2001	333.15	995.6	.1
.25	333.15	1002.8	.1
.5	333.15	1013.7	.1
.75	333.15	1027.5	.1
1.0082	333.15	1039.7	.1
1.5291	333.15	1067.2	.1
1.79	333.15	1092.3	.1
1.9999	333.15	1102.2	.1
2.5	333.15	1121.5	.1
3	333.15	1130.6	.1
.2001	338.15	993.4	.1
.25	338.15	1002.8	.1
.5	338.15	1011	.1
.75	338.15	1024.7	.1
1.0082	338.15	1036.9	.1
1.5291	338.15	1064.3	.1
1.79	338.15	1089.3	.1
1.9999	338.15	1099.1	.1
2.5	338.15	1118.3	.1
3	338.15	1127.5	.1
.2001	343.15	990.6	.1
.25	343.15	997.3	.1
.5	343.15	1008.1	.1
.75	343.15	1021.8	.1
1.0082	343.15	1033.9	.1
1.5291	343.15	1061.3	.1
1.79	343.15	1086.3	.1
1.9999	343.15	1096	.1
2.5	343.15	1115	.1
3	343.15	1124.3	.1
.2001	348.15	987.7	.1
.25	348.15	994.3	.1
.5	348.15	1005.2	.1
.75	348.15	1018.7	.1
1.0082	348.15	1030.9	.1
1.5291	348.15	1058.2	.1
1.79	348.15	1083.2	.1
1.9999	348.15	1092.7	.1
2.5	348.15	1111.8	.1
3	348.15	1121.1	.1

System: water + potassium lysinate; phases: Liquid
Fixed: Pressure, kPa = 101.3
Property: Viscosity, Pa*s (Liquid); method: Falling or rolling sphere viscometry
Amount concentration (molarity), mol/dm3 of potassium lysinate	Temperature, K	Viscosity, Pa*s	uncertainty
.2001	298.15	.0010031	.0000050155
.25	298.15	.0010079	.0000050395
.5	298.15	.0012899	.0000064495
.75	298.15	.0013479	.0000067395
1.0082	298.15	.0015747	.0000078735
1.5291	298.15	.0022856	.000011428
1.79	298.15	.0032362	.000016181
1.9999	298.15	.0035636	.000017818
2.5	298.15	.0054062	.000027031
3	298.15	.0084071	.0000420355
.2001	303.15	.0008978	.000004489
.25	303.15	.0009023	.0000045115
.5	303.15	.0011581	.0000057905
.75	303.15	.0011996	.000005998
1.0082	303.15	.0013969	.0000069845
1.5291	303.15	.0020071	.0000100355
1.79	303.15	.002805	.000014025
1.9999	303.15	.0030545	.0000152725
2.5	303.15	.0045967	.0000229835
3	303.15	.0070267	.0000351335
.2001	308.15	.0008095	.0000040475
.25	308.15	.0008125	.0000040625
.5	308.15	.0010454	.000005227
.75	308.15	.0010745	.0000053725
1.0082	308.15	.0012473	.0000062365
1.5291	308.15	.0017745	.0000088725
1.79	308.15	.002454	.00001227
1.9999	308.15	.0026762	.000013381
2.5	308.15	.0039504	.000019752
3	308.15	.0059463	.0000297315
.2001	313.15	.0007344	.000003672
.25	313.15	.0007377	.0000036885
.5	313.15	.0009512	.000004756
.75	313.15	.0009697	.0000048485
1.0082	313.15	.0011214	.000005607
1.5291	313.15	.0015815	.0000079075
1.79	313.15	.0021732	.000010866
1.9999	313.15	.0023578	.000011789
2.5	313.15	.0034328	.000017164
3	313.15	.0050939	.0000254695
.2001	318.15	.0006711	.0000033555
.25	318.15	.0006737	.0000033685
.5	318.15	.000866	.00000433
.75	318.15	.0008813	.0000044065
1.0082	318.15	.0010138	.000005069
1.5291	318.15	.0014184	.000007092
1.79	318.15	.0019344	.000009672
1.9999	318.15	.0021164	.000010582
2.5	318.15	.0030085	.0000150425
3	318.15	.0044075	.0000220375
.2001	323.15	.0006168	.000003084
.25	323.15	.0006185	.0000030925
.5	323.15	.000796	.00000398
.75	323.15	.000804	.00000402
1.0082	323.15	.0009223	.0000046115
1.5291	323.15	.0012798	.000006399
1.79	323.15	.0017354	.000008677
1.9999	323.15	.0019159	.0000095795
2.5	323.15	.0026594	.000013297
3	323.15	.0038517	.0000192585
.2001	328.15	.0005697	.0000028485
.25	328.15	.0005705	.0000028525
.5	328.15	.0007351	.0000036755
.75	328.15	.0007388	.000003694
1.0082	328.15	.0008431	.0000042155
1.5291	328.15	.0011621	.0000058105
1.79	328.15	.001566	.00000783
1.9999	328.15	.0017567	.0000087835
2.5	328.15	.0023683	.0000118415
3	328.15	.0033936	.000016968
.2001	333.15	.0005292	.000002646
.25	333.15	.0005294	.000002647
.5	333.15	.0006833	.0000034165
.75	333.15	.0006798	.000003399
1.0082	333.15	.0007748	.000003874
1.5291	333.15	.0010606	.000005303
1.79	333.15	.0014211	.0000071055
1.9999	333.15	.0016208	.000008104
2.5	333.15	.0021358	.000010679
3	333.15	.003012	.00001506
.2001	338.15	.0004937	.0000024685
.25	338.15	.0004939	.0000024695
.5	338.15	.0006409	.0000032045
.75	338.15	.000629	.000003145
1.0082	338.15	.0007155	.0000035775
1.5291	338.15	.0009729	.0000048645
1.79	338.15	.001296	.00000648
1.9999	338.15	.0015011	.0000075055
2.5	338.15	.0019272	.000009636
3	338.15	.0026926	.000013463
.2001	343.15	.0004633	.0000023165
.25	343.15	.000463	.000002315
.5	343.15	.0006042	.000003021
.75	343.15	.0005855	.0000029275
1.0082	343.15	.0006637	.0000033185
1.5291	343.15	.0008961	.0000044805
1.79	343.15	.0011884	.000005942
1.9999	343.15	.0014351	.0000071755
2.5	343.15	.0017485	.0000087425
3	343.15	.0024232	.000012116
.2001	348.15	.0004359	.0000021795
.25	348.15	.0004358	.000002179
.5	348.15	.0005715	.0000028575
.75	348.15	.0005472	.000002736
1.0082	348.15	.0006181	.0000030905
1.5291	348.15	.0008306	.000004153
1.79	348.15	.0010945	.0000054725
1.9999	348.15	.0013458	.000006729
2.5	348.15	.0015943	.0000079715
3	348.15	.0022079	.0000110395

System: water + potassium L-prolinate; phases: Liquid
Fixed: Pressure, kPa = 101.3
Property: Mass density, kg/m3 (Liquid); method: Vibrating tube method
Amount concentration (molarity), mol/dm3 of potassium L-prolinate	Temperature, K	Mass density, kg/m3	uncertainty
.5001	298.15	1026.6	.1
1	298.15	1054.7	.1
1.5	298.15	1088	.1
2.0002	298.15	1111.4	.1
2.5	298.15	1145.8	.1
3	298.15	1166.9	.1
.5001	303.15	1025.2	.1
1	303.15	1053	.1
1.5	303.15	1086.4	.1
2.0002	303.15	1109.2	.1
2.5	303.15	1143.2	.1
3	303.15	1164.1	.1
.5001	308.15	1023.5	.1
1	308.15	1051	.1
1.5	308.15	1084.5	.1
2.0002	308.15	1107	.1
2.5	308.15	1140.6	.1
3	308.15	1161.3	.1
.5001	313.15	1021.6	.1
1	313.15	1049	.1
1.5	313.15	1082.2	.1
2.0002	313.15	1104.7	.1
2.5	313.15	1137.9	.1
3	313.15	1158.4	.1
.5001	318.15	1019.6	.1
1	318.15	1046.8	.1
1.5	318.15	1081.2	.1
2.0002	318.15	1102.5	.1
2.5	318.15	1135.1	.1
3	318.15	1155.5	.1
.5001	323.15	1017.6	.1
1	323.15	1044.5	.1
1.5	323.15	1078.8	.1
2.0002	323.15	1100.4	.1
2.5	323.15	1132.2	.1
3	323.15	1152.5	.1
.5001	328.15	1015.2	.1
1	328.15	1042.2	.1
1.5	328.15	1076.6	.1
2.0002	328.15	1098.5	.1
2.5	328.15	1129.2	.1
3	328.15	1149.4	.1
.5001	333.15	1012.8	.1
1	333.15	1039.9	.1
1.5	333.15	1074.7	.1
2.0002	333.15	1095.8	.1
2.5	333.15	1126.2	.1
3	333.15	1146.3	.1
.5001	338.15	1010.4	.1
1	338.15	1037.4	.1
1.5	338.15	1073.7	.1
2.0002	338.15	1093.6	.1
2.5	338.15	1123	.1
3	338.15	1143.1	.1
.5001	343.15	1008	.1
1	343.15	1035.5	.1
1.5	343.15	1071.9	.1
2.0002	343.15	1094.3	.1
2.5	343.15	1119.9	.1
3	343.15	1139.8	.1
.5001	348.15	1005.6	.1
1	348.15	1035.7	.1
1.5	348.15	1070.5	.1
2.0002	348.15	1092.4	.1
2.5	348.15	1116.6	.1
3	348.15	1136.5	.1

System: water + potassium L-prolinate; phases: Liquid
Fixed: Pressure, kPa = 101.3
Property: Viscosity, Pa*s (Liquid); method: Falling or rolling sphere viscometry
Amount concentration (molarity), mol/dm3 of potassium L-prolinate	Temperature, K	Viscosity, Pa*s	uncertainty
.5001	298.15	.0011047	.0000055235
1	298.15	.00138	.0000069
1.5	298.15	.0018613	.0000093065
2.0002	298.15	.0022927	.0000114635
2.5	298.15	.0031809	.0000159045
3	298.15	.0040539	.0000202695
.5001	303.15	.0009857	.0000049285
1	303.15	.0012318	.000006159
1.5	303.15	.0016423	.0000082115
2.0002	303.15	.0020282	.000010141
2.5	303.15	.0027552	.000013776
3	303.15	.0034909	.0000174545
.5001	308.15	.0008913	.0000044565
1	308.15	.0011032	.000005516
1.5	308.15	.0014652	.000007326
2.0002	308.15	.0017944	.000008972
2.5	308.15	.0024092	.000012046
3	308.15	.0030383	.0000151915
.5001	313.15	.0008086	.000004043
1	313.15	.0009949	.0000049745
1.5	313.15	.0013105	.0000065525
2.0002	313.15	.0016012	.000008006
2.5	313.15	.002136	.00001068
3	313.15	.0026618	.000013309
.5001	318.15	.0007351	.0000036755
1	318.15	.0009035	.0000045175
1.5	318.15	.0012	.000006
2.0002	318.15	.0014391	.0000071955
2.5	318.15	.0019028	.000009514
3	318.15	.0023539	.0000117695
.5001	323.15	.0006741	.0000033705
1	323.15	.0008251	.0000041255
1.5	323.15	.0010847	.0000054235
2.0002	323.15	.0012961	.0000064805
2.5	323.15	.0017068	.000008534
3	323.15	.0021018	.000010509
.5001	328.15	.0006219	.0000031095
1	328.15	.0007569	.0000037845
1.5	328.15	.0009922	.000004961
2.0002	328.15	.0011957	.0000059785
2.5	328.15	.0015415	.0000077075
3	328.15	.0018866	.000009433
.5001	333.15	.0005764	.000002882
1	333.15	.0007002	.000003501
1.5	333.15	.0009175	.0000045875
2.0002	333.15	.001093	.000005465
2.5	333.15	.0014001	.0000070005
3	333.15	.0017041	.0000085205
.5001	338.15	.0005373	.0000026865
1	338.15	.0006493	.0000032465
1.5	338.15	.0008552	.000004276
2.0002	338.15	.0010086	.000005043
2.5	338.15	.0012781	.0000063905
3	338.15	.0015493	.0000077465
.5001	343.15	.0005039	.0000025195
1	343.15	.000608	.00000304
1.5	343.15	.0007966	.000003983
2.0002	343.15	.0009587	.0000047935
2.5	343.15	.0011731	.0000058655
3	343.15	.001414	.00000707
.5001	348.15	.0004733	.0000023665
1	348.15	.0005792	.000002896
1.5	348.15	.0007486	.000003743
2.0002	348.15	.0008972	.000004486
2.5	348.15	.0010818	.000005409
3	348.15	.0012993	.0000064965

System: carbon dioxide + potassium carbonate + water; phases: Liquid, Gas
Fixed: Solvent: Mass fraction of potassium carbonate = .3
Fixed: Temperature, K = 343
Property: Mole fraction of carbon dioxide (Liquid); method: Phase equilibration
Partial pressure, kPa of carbon dioxide	Mole fraction of carbon dioxide	uncertainty
.16	.007	
.27	.009	
.535	.012	
.97	.015	
1.977	.018	
2.506	.021	

System: carbon dioxide + ethanolamine + water; phases: Liquid, Gas
Fixed: Solvent: Mass fraction of ethanolamine = .3
Fixed: Temperature, K = 343
Property: Mole fraction of carbon dioxide (Liquid); method: Phase equilibration
Partial pressure, kPa of carbon dioxide	Mole fraction of carbon dioxide	uncertainty
13.94	.0549	
11.631	.0536	
7.621	.0523	
5.377	.0524	
4.314	.0521	
4.199	.0522	
3.594	.0519	
2.572	.0506	
1.992	.0504	
.38	.0453	
.313	.0439	

System: carbon dioxide + water + potassium lysinate; phases: Liquid, Gas
Fixed: Solvent: Amount concentration (molarity), mol/dm3 of potassium lysinate = 2.5
Property: Mole fraction of carbon dioxide (Liquid); method: Phase equilibration
Temperature, K	Partial pressure, kPa of carbon dioxide	Mole fraction of carbon dioxide	uncertainty
313	17.444	.0424	
313	14.235	.0414	
313	12.354	.0412	
313	10.082	.0415	
313	8.77	.0413	
313	6.657	.0411	
313	4.962	.0401	
313	3.353	.0396	
313	2.412	.0387	
313	2.156	.0384	
313	1.169	.0377	
313	.209	.0346	
313	.152	.0341	
313	.104	.0335	
333	16.088	.0389	
333	3.359	.0364	
333	2.121	.036	
333	1.807	.0346	
333	.812	.034	
333	.433	.0316	
333	.32	.0295	
333	.254	.0298	
333	.182	.0283	
333	.14	.0284	
333	.108	.0272	
333	.069	.026	

System: carbon dioxide + water + potassium lysinate; phases: Liquid, Gas
Property: Mass density, kg/m3 (Liquid); method: Vibrating tube method
Solvent: Amount concentration (molarity), mol/dm3 of potassium lysinate	Temperature, K	Mole fraction of carbon dioxide	Mass density, kg/m3	uncertainty
3	298.15	.018	1162	.1
3	298.15	.022	1169.2	.1
3	298.15	.026	1170.8	.1
3	298.15	.03	1181.6	.1
2.5	298.15	.029	1196	.1
2.5	298.15	.03	1195.8	.1
2.5	298.15	.036	1202.9	.1
2.5	298.15	.043	1213	.1
2.5	298.15	.046	1220.6	.1
3	303.15	.018	1159.4	.1
3	303.15	.022	1166.6	.1
3	303.15	.026	1168.2	.1
3	303.15	.03	1179	.1
2.5	303.15	.029	1193.4	.1
2.5	303.15	.03	1193.3	.1
2.5	303.15	.036	1200.4	.1
2.5	303.15	.043	1210.4	.1
2.5	303.15	.046	1218	.1
3	308.15	.018	1156.7	.1
3	308.15	.022	1164.1	.1
3	308.15	.026	1165.6	.1
3	308.15	.03	1176.5	.1
2.5	308.15	.029	1190.8	.1
2.5	308.15	.03	1190.8	.1
2.5	308.15	.036	1197.9	.1
2.5	308.15	.043	1206.7	.1
2.5	308.15	.046	1215.4	.1
3	313.15	.018	1154	.1
3	313.15	.022	1161.4	.1
3	313.15	.026	1163	.1
3	313.15	.03	1174	.1
2.5	313.15	.029	1188.2	.1
2.5	313.15	.03	1188.3	.1
2.5	313.15	.036	1195.4	.1
2.5	313.15	.043	1204.1	.1
2.5	313.15	.046	1212.7	.1
3	318.15	.018	1151.3	.1
3	318.15	.022	1158.7	.1
3	318.15	.026	1160.3	.1
3	318.15	.03	1171.3	.1
2.5	318.15	.029	1185.5	.1
2.5	318.15	.03	1185.7	.1
2.5	318.15	.036	1192.7	.1
2.5	318.15	.043	1201.3	.1
2.5	318.15	.046	1210	.1
3	323.15	.018	1148.6	.1
3	323.15	.022	1156	.1
3	323.15	.026	1157.7	.1
3	323.15	.03	1168.6	.1
2.5	323.15	.029	1182.8	.1
2.5	323.15	.03	1181.3	.1
2.5	323.15	.036	1189.9	.1
2.5	323.15	.043	1198.5	.1
2.5	323.15	.046	1207.2	.1
3	328.15	.018	1145.8	.1
3	328.15	.022	1153.2	.1
3	328.15	.026	1155	.1
3	328.15	.03	1165.8	.1
2.5	328.15	.029	1179.9	.1
2.5	328.15	.03	1178.7	.1
2.5	328.15	.036	1187	.1
2.5	328.15	.043	1195.6	.1
2.5	328.15	.046	1204.3	.1
3	333.15	.018	1142.9	.1
3	333.15	.022	1150.3	.1
3	333.15	.026	1152.3	.1
3	333.15	.03	1162.9	.1
2.5	333.15	.029	1177	.1
2.5	333.15	.03	1175.8	.1
2.5	333.15	.036	1184.1	.1
2.5	333.15	.043	1192.7	.1
2.5	333.15	.046	1201.4	.1
3	338.15	.018	1139.9	.1
3	338.15	.022	1147.3	.1
3	338.15	.026	1149.3	.1
3	338.15	.03	1159.9	.1
2.5	338.15	.029	1174	.1
2.5	338.15	.03	1172.8	.1
2.5	338.15	.036	1181.2	.1
2.5	338.15	.043	1189.8	.1
2.5	338.15	.046	1198.5	.1
3	343.15	.018	1136.8	.1
3	343.15	.022	1144.2	.1
3	343.15	.026	1146.2	.1
3	343.15	.03	1156.8	.1
2.5	343.15	.029	1171	.1
2.5	343.15	.03	1169.8	.1
2.5	343.15	.036	1178.2	.1
2.5	343.15	.043	1186.7	.1
2.5	343.15	.046	1195.4	.1
3	348.15	.018	1133.6	.1
3	348.15	.022	1141.1	.1
3	348.15	.026	1143	.1
3	348.15	.03	1153.7	.1
2.5	348.15	.029	1168	.1
2.5	348.15	.03	1166.7	.1
2.5	348.15	.036	1175.1	.1
2.5	348.15	.043	1183.7	.1
2.5	348.15	.046	1192.4	.1

System: carbon dioxide + water + potassium L-prolinate; phases: Liquid, Gas
Fixed: Solvent: Amount concentration (molarity), mol/dm3 of potassium L-prolinate = 2.5
Property: Mole fraction of carbon dioxide (Liquid); method: Phase equilibration
Temperature, K	Partial pressure, kPa of carbon dioxide	Mole fraction of carbon dioxide	uncertainty
313	6.954	.0283	
313	2.341	.0256	
313	1.203	.0241	
313	.649	.0236	
313	.32	.0226	
313	.18	.0221	
313	.107	.0202	
333	15.728	.025	
333	9.93	.0248	
333	7.006	.0247	
333	5.015	.0235	
333	3.985	.0231	
333	1.95	.0217	
333	1.259	.0206	
333	.493	.0205	
333	.247	.019	
333	.065	.0164	
333	.037	.0159	

System: carbon dioxide + water + potassium L-prolinate; phases: Liquid, Gas
Property: Mass density, kg/m3 (Liquid); method: Vibrating tube method
Solvent: Amount concentration (molarity), mol/dm3 of potassium L-prolinate	Temperature, K	Mole fraction of carbon dioxide	Mass density, kg/m3	uncertainty
3	298.15	.005	1171.5	.1
3	298.15	.014	1197.4	.1
3	298.15	.026	1213.1	.1
3	298.15	.032	1221.8	.1
3	303.15	.005	1168.8	.1
3	303.15	.014	1194.7	.1
3	303.15	.026	1210.4	.1
3	303.15	.032	1219.1	.1
3	308.15	.005	1166	.1
3	308.15	.014	1191.9	.1
3	308.15	.026	1207.6	.1
3	308.15	.032	1216.3	.1
3	313.15	.005	1163.2	.1
3	313.15	.014	1189.1	.1
3	313.15	.026	1204.7	.1
3	313.15	.032	1213.5	.1
3	318.15	.005	1160.2	.1
3	318.15	.014	1186.2	.1
3	318.15	.026	1201.7	.1
3	318.15	.032	1210.6	.1
3	323.15	.005	1157.2	.1
3	323.15	.014	1183.2	.1
3	323.15	.026	1198.7	.1
3	323.15	.032	1207.6	.1
3	328.15	.005	1151.1	.1
3	328.15	.014	1180.2	.1
3	328.15	.026	1195.6	.1
3	328.15	.032	1204.6	.1
3	333.15	.005	1154.2	.1
3	333.15	.014	1177.1	.1
3	333.15	.026	1192.4	.1
3	333.15	.032	1201.5	.1
3	338.15	.005	1147.9	.1
3	338.15	.014	1173.9	.1
3	338.15	.026	1189.2	.1
3	338.15	.032	1198.3	.1
3	343.15	.005	1144.6	.1
3	343.15	.014	1170.7	.1
3	343.15	.026	1185.9	.1
3	343.15	.032	1195	.1
3	348.15	.005	1141.3	.1
3	348.15	.014	1164.3	.1
3	348.15	.026	1182.5	.1
3	348.15	.032	1191.7	.1
