Measured thermophysical data. Solubility of spironolactone in supercritical carbon dioxide: Experimental and modeling approaches
Source: Fluid Phase Equilib., 2013, 10.1016/j.fluid.2013.07.003
Compound 1: spironolactone, C24H32O4S, purity 98.5%
Compound 2: carbon dioxide, CO2, purity 99.8%

System: spironolactone + carbon dioxide; phases: Fluid (supercritical or subcritical phases), Crystal
Property: Mole fraction of spironolactone (Fluid (supercritical or subcritical phases)); method: Phase equilibration
Temperature, K	Pressure, kPa	Mole fraction of spironolactone	uncertainty
308	16000	.0000625	.00000523
308	20000	.0000719	.00000588
308	24000	.0000912	.00000635
308	28000	.0000945	.00000785
308	32000	.0000997	.00000654
308	36000	.000109	.00000912
308	40000	.000115	.00000962
318	16000	.000201	.0000112
318	20000	.000249	.0000156
318	24000	.000325	.0000178
318	28000	.000391	.0000198
318	32000	.000424	.0000209
318	36000	.000468	.0000232
318	40000	.000478	.000033
328	16000	.000526	.0000365
328	20000	.000866	.0000379
328	24000	.00132	.0000415
328	28000	.00141	.0000469
328	32000	.00151	.0000487
328	36000	.0017	.0000502
328	40000	.00195	.0000825
338	16000	.00101	.0000425
338	20000	.00134	.000052
338	24000	.00168	.0000545
338	28000	.00221	.0000666
338	32000	.00348	.0000743
338	36000	.00412	.000123
338	40000	.00501	.000232
