Measured thermophysical data. Capillary constant and surface tension of dimethyl ether and n-butane at temperatures from 214 K to those close to the critical point
Source: Fluid Phase Equilib., 2016, 10.1016/j.fluid.2016.01.001
Compound 1: dimethyl ether, C2H6O, purity 99.9%
Compound 2: n-butane, C4H10, purity 99.89%

System: dimethyl ether; phases: Liquid, Air at 1 atmosphere
Property: Surface tension liquid-gas, N/m (Liquid); method: Capillary rise
Temperature, K	Surface tension liquid-gas, N/m	uncertainty
214	.02445	
220	.02351	
225	.02269	
230	.02187	
235	.02115	
240	.02043	
245	.0197	
250	.01892	
255	.01815	
260	.01739	
265	.01662	
270	.01593	
275	.01519	
280	.01447	
285	.01373	
290	.01302	
295	.01228	
300	.01157	
305	.01085	
315	.009497	
320	.008813	
325	.008137	
330	.007476	
335	.006814	
340	.006164	
345	.005528	
350	.004899	
355	.004307	
360	.003707	
365	.003142	
370	.002575	
375	.002042	
380	.001516	
385	.001054	
390	.000614	

System: n-butane; phases: Liquid, Air at 1 atmosphere
Property: Surface tension liquid-gas, N/m (Liquid); method: Capillary rise
Temperature, K	Surface tension liquid-gas, N/m	uncertainty
278.15	.01457	
283.15	.01396	
288.15	.01337	
293.15	.01279	
298.15	.01217	
303.15	.01153	
308.15	.01094	
313.15	.01035	
318.15	.009851	
323.15	.009286	
328.15	.008705	
333.15	.00814	
338.15	.007593	
343.15	.007043	
348.15	.006516	
353.15	.005991	
358.15	.005479	
363.15	.004981	
368.15	.004483	
373.15	.004003	
378.15	.003515	
383.15	.003049	
388.15	.002578	
393.15	.002091	
398.15	.001679	
403.15	.00129	
408.15	.000923	
413.15	.000583	
417.15	.000341	
419.75	.000186	
420.35	.000157	
420.85	.000129	
421.08	.000118	
421.48	.0001	
421.88	.000081	
422.28	.000064	
422.63	.000051	
423.04	.000036	
