Measured thermophysical data. Experimental isobaric (vapor + liquid) equilibrium data for the binary system N, N-dimethyl formamide + dimethyl sulfoxide and the quaternary system sec-butyl alcohol + sec-butyl acetate + N, Ndimethyl formamide + dimethyl sulfoxide at 101.3 kPa
Source: Fluid Phase Equilib., 2016, 10.1016/j.fluid.2015.09.039
Compound 1: sec-butanol, C4H10O, purity 99.9%
Compound 2: sec-butyl acetate, C6H12O2, purity 99.9%
Compound 3: dimethylformamide (DMF), C3H7NO, purity 99.9%
Compound 4: dimethyl sulfoxide, C2H6OS, purity 99.9%

System: dimethyl sulfoxide + dimethylformamide (DMF); phases: Liquid, Gas
Fixed: Pressure, kPa = 101.3
Property: Boiling temperature at pressure P, K (Liquid); method: Ebulliometric method (Recirculating still)
Mole fraction of dimethylformamide (DMF)	Boiling temperature at pressure P, K	uncertainty
.992	426.59	.15
.986	426.03	.15
.955	426.71	.15
.912	427.25	.15
.854	429.03	.15
.811	430.14	.15
.762	431.35	.15
.723	433.01	.15
.65	434.74	.15
.584	436.51	.15
.534	438.04	.15
.485	439.64	.15
.45	440.93	.15
.405	442.55	.15
.368	444	.15
.348	445.44	.15
.302	447.12	.15
.293	447.53	.15
.282	448.13	.15
.259	449.06	.15
.231	450.16	.15
.207	451.35	.15
.187	452.34	.15
.165	453.45	.15
.143	454.55	.15
.121	455.56	.15
.099	456.85	.15
.069	459.33	.15
.042	461.24	.15
.022	462.9	.15
.011	463.75	.15

System: dimethyl sulfoxide + dimethylformamide (DMF); phases: Gas, Liquid
Fixed: Pressure, kPa = 101.3
Property: Mole fraction of dimethylformamide (DMF) (Gas); method: Chromatography
Mole fraction of dimethylformamide (DMF)	Mole fraction of dimethylformamide (DMF)	uncertainty
.992	.998	.004
.986	.996	.004
.955	.986	.004
.912	.971	.004
.854	.949	.004
.811	.931	.004
.762	.908	.004
.723	.889	.004
.65	.847	.004
.584	.804	.004
.534	.767	.004
.485	.727	.004
.45	.695	.004
.405	.653	.004
.368	.613	.004
.348	.589	.004
.302	.535	.004
.293	.523	.004
.282	.508	.004
.259	.48	.004
.231	.439	.004
.207	.403	.004
.187	.371	.004
.165	.334	.004
.143	.297	.004
.121	.256	.004
.099	.216	.004
.069	.154	.004
.042	.096	.004
.022	.051	.004
.011	.026	.004
