Measured thermophysical data. Enthalpies and Gibbs free energies of solvation in ethylene glycol at298 K: Influence of the solvophobic effect
Source: Fluid Phase Equilib., 2013, 10.1016/j.fluid.2013.06.028
Compound 1: 1,2-dihydroxyethane, C2H6O2, purity 99.9%
Compound 2: n-hexane, C6H14, purity 99%
Compound 3: n-heptane, C7H16, purity 99%
Compound 4: n-octane, C8H18, purity 99%
Compound 5: n-nonane, C9H20, purity 99%
Compound 6: cyclohexane, C6H12, purity 99.5%
Compound 7: cyclohexane, methyl-, C7H14, purity 99%
Compound 8: benzene, C6H6, purity 99.7%
Compound 9: methylbenzene, C7H8, purity 99.8%
Compound 10: .alpha.-methyltoluene, C8H10, purity 99%
Compound 11: 1,2-xylene, C8H10, purity 99%
Compound 12: m-xylene, C8H10, purity 99%
Compound 13: 1,4-xylene, C8H10, purity 99%
Compound 14: benzene, fluoro-, C6H5F, purity 99%
Compound 15: benzene, chloro-, C6H5Cl, purity 99.5%
Compound 16: benzene, bromo-, C6H5Br, purity 99.5%
Compound 17: naphthalene, C10H8, purity 99%
Compound 18: phenylbenzene, C12H10, purity 99.5%
Compound 19: iodobenzene, C6H5I, purity 99%

System: 1,2-dihydroxyethane + n-hexane; phases: Liquid mixture 1, Liquid
Fixed: Pressure, kPa = 100
Property: Molar enthalpy of solution, kJ/mol (Liquid mixture 1); method: Titration calorimetry
Temperature, K	Molar enthalpy of solution, kJ/mol	uncertainty
298	8.5	.5

System: 1,2-dihydroxyethane + n-heptane; phases: Liquid mixture 1, Liquid
Fixed: Pressure, kPa = 100
Property: Molar enthalpy of solution, kJ/mol (Liquid mixture 1); method: Titration calorimetry
Temperature, K	Molar enthalpy of solution, kJ/mol	uncertainty
298	9.5	.3

System: 1,2-dihydroxyethane + n-octane; phases: Liquid mixture 1, Liquid
Fixed: Pressure, kPa = 100
Property: Molar enthalpy of solution, kJ/mol (Liquid mixture 1); method: Titration calorimetry
Temperature, K	Molar enthalpy of solution, kJ/mol	uncertainty
298	10.7	.5

System: 1,2-dihydroxyethane + n-nonane; phases: Liquid mixture 1, Liquid
Fixed: Pressure, kPa = 100
Property: Molar enthalpy of solution, kJ/mol (Liquid mixture 1); method: Titration calorimetry
Temperature, K	Molar enthalpy of solution, kJ/mol	uncertainty
298	11.8	.5

System: 1,2-dihydroxyethane + cyclohexane; phases: Liquid mixture 1, Liquid
Fixed: Pressure, kPa = 100
Property: Molar enthalpy of solution, kJ/mol (Liquid mixture 1); method: Titration calorimetry
Temperature, K	Molar enthalpy of solution, kJ/mol	uncertainty
298	7.3	.3

System: 1,2-dihydroxyethane + cyclohexane, methyl-; phases: Liquid mixture 1, Liquid
Fixed: Pressure, kPa = 100
Property: Molar enthalpy of solution, kJ/mol (Liquid mixture 1); method: Titration calorimetry
Temperature, K	Molar enthalpy of solution, kJ/mol	uncertainty
298	7.7	.5

System: benzene + 1,2-dihydroxyethane; phases: Liquid mixture 1, Liquid
Fixed: Pressure, kPa = 100
Property: Molar enthalpy of solution, kJ/mol (Liquid mixture 1); method: Titration calorimetry
Temperature, K	Molar enthalpy of solution, kJ/mol	uncertainty
298	2.09	.1

System: benzene + 1,2-dihydroxyethane; phases: Liquid, Gas
Fixed: Mole fraction of benzene = 0
Property: Activity coefficient of benzene (Liquid); method: Chromatography
Temperature, K	Activity coefficient of benzene	uncertainty
298	32	3

System: 1,2-dihydroxyethane + methylbenzene; phases: Liquid mixture 1, Liquid
Fixed: Pressure, kPa = 100
Property: Molar enthalpy of solution, kJ/mol (Liquid mixture 1); method: Titration calorimetry
Temperature, K	Molar enthalpy of solution, kJ/mol	uncertainty
298	2.7	.1

System: 1,2-dihydroxyethane + methylbenzene; phases: Liquid, Gas
Fixed: Mole fraction of methylbenzene = 0
Property: Activity coefficient of methylbenzene (Liquid); method: Chromatography
Temperature, K	Activity coefficient of methylbenzene	uncertainty
298	93	6

System: .alpha.-methyltoluene + 1,2-dihydroxyethane; phases: Liquid mixture 1, Liquid
Fixed: Pressure, kPa = 100
Property: Molar enthalpy of solution, kJ/mol (Liquid mixture 1); method: Titration calorimetry
Temperature, K	Molar enthalpy of solution, kJ/mol	uncertainty
298	3.55	.1

System: 1,2-xylene + 1,2-dihydroxyethane; phases: Liquid mixture 1, Liquid
Fixed: Pressure, kPa = 100
Property: Molar enthalpy of solution, kJ/mol (Liquid mixture 1); method: Titration calorimetry
Temperature, K	Molar enthalpy of solution, kJ/mol	uncertainty
298	3.65	.3

System: 1,2-dihydroxyethane + m-xylene; phases: Liquid mixture 1, Liquid
Fixed: Pressure, kPa = 100
Property: Molar enthalpy of solution, kJ/mol (Liquid mixture 1); method: Titration calorimetry
Temperature, K	Molar enthalpy of solution, kJ/mol	uncertainty
298	3.6	.3

System: 1,4-xylene + 1,2-dihydroxyethane; phases: Liquid mixture 1, Liquid
Fixed: Pressure, kPa = 100
Property: Molar enthalpy of solution, kJ/mol (Liquid mixture 1); method: Titration calorimetry
Temperature, K	Molar enthalpy of solution, kJ/mol	uncertainty
298	3.75	.3

System: 1,2-dihydroxyethane + benzene, fluoro-; phases: Liquid mixture 1, Liquid
Fixed: Pressure, kPa = 100
Property: Molar enthalpy of solution, kJ/mol (Liquid mixture 1); method: Titration calorimetry
Temperature, K	Molar enthalpy of solution, kJ/mol	uncertainty
298	1.05	.1

System: 1,2-dihydroxyethane + benzene, fluoro-; phases: Liquid, Gas
Fixed: Mole fraction of benzene, fluoro- = 0
Property: Activity coefficient of benzene, fluoro- (Liquid); method: Chromatography
Temperature, K	Activity coefficient of benzene, fluoro-	uncertainty
298	32	5

System: 1,2-dihydroxyethane + benzene, chloro-; phases: Liquid mixture 1, Liquid
Fixed: Pressure, kPa = 100
Property: Molar enthalpy of solution, kJ/mol (Liquid mixture 1); method: Titration calorimetry
Temperature, K	Molar enthalpy of solution, kJ/mol	uncertainty
298	1.92	.1

System: 1,2-dihydroxyethane + benzene, chloro-; phases: Liquid, Gas
Fixed: Mole fraction of benzene, chloro- = 0
Property: Activity coefficient of benzene, chloro- (Liquid); method: Chromatography
Temperature, K	Activity coefficient of benzene, chloro-	uncertainty
298	40	4

System: 1,2-dihydroxyethane + benzene, bromo-; phases: Liquid mixture 1, Liquid
Fixed: Pressure, kPa = 100
Property: Molar enthalpy of solution, kJ/mol (Liquid mixture 1); method: Titration calorimetry
Temperature, K	Molar enthalpy of solution, kJ/mol	uncertainty
298	.92	.1

System: 1,2-dihydroxyethane + benzene, bromo-; phases: Liquid, Gas
Fixed: Mole fraction of benzene, bromo- = 0
Property: Activity coefficient of benzene, bromo- (Liquid); method: Chromatography
Temperature, K	Activity coefficient of benzene, bromo-	uncertainty
298	45	5

System: naphthalene + 1,2-dihydroxyethane; phases: Liquid, Crystal
Fixed: Pressure, kPa = 100
Property: Molar enthalpy of solution, kJ/mol (Liquid); method: Titration calorimetry
Temperature, K	Molar enthalpy of solution, kJ/mol	uncertainty
298	18.5	1

System: naphthalene + 1,2-dihydroxyethane; phases: Liquid, Gas
Fixed: Mole fraction of naphthalene = 0
Property: Activity coefficient of naphthalene (Liquid); method: Chromatography
Temperature, K	Activity coefficient of naphthalene	uncertainty
298	238	25

System: phenylbenzene + 1,2-dihydroxyethane; phases: Liquid, Crystal
Fixed: Pressure, kPa = 100
Property: Molar enthalpy of solution, kJ/mol (Liquid); method: Isoperibol calorimetry
Temperature, K	Molar enthalpy of solution, kJ/mol	uncertainty
298	17.6	1

System: 1,2-dihydroxyethane + iodobenzene; phases: Liquid, Gas
Fixed: Mole fraction of iodobenzene = 0
Property: Activity coefficient of iodobenzene (Liquid); method: Chromatography
Temperature, K	Activity coefficient of iodobenzene	uncertainty
298	42	5
