Measured thermophysical data. Determination of the solubility, dissolution enthalpy and entropy of icariin in water, ethanol, and methanol
Source: Fluid Phase Equilib., 2012, 10.1016/j.fluid.2012.03.022
Compound 1: icariin, C33H40O15, purity 99%
Compound 2: ethanol, C2H6O, purity 99.8%
Compound 3: methanol, CH4O, purity 99.8%
Compound 4: water, H2O, purity 99.8%

System: icariin + water; phases: Liquid, Crystal
Fixed: Pressure, kPa = 101
Property: Mole fraction of icariin (Liquid); method: UV spectroscopy
Temperature, K	Mole fraction of icariin	uncertainty
288.2	.000001381	.00000005
293.2	.000001745	.00000005
298.2	.000001853	.00000005
303.2	.000001987	.00000005
308.2	.000002136	.00000005
313.2	.000002304	.00000005
318.2	.000002466	.00000005
323.2	.000002573	.00000005
328.2	.000003738	.00000005

System: ethanol + icariin; phases: Liquid, Crystal
Fixed: Pressure, kPa = 101
Property: Mole fraction of icariin (Liquid); method: UV spectroscopy
Temperature, K	Mole fraction of icariin	uncertainty
288.2	.00002236	.00000005
293.2	.000026395	.00000005
298.2	.000030646	.00000005
303.2	.000033372	.00000005
308.2	.000035007	.00000005
313.2	.000058881	.00000005
318.2	.000074143	.00000005
323.2	.000104674	.00000005
328.2	.000122768	.00000005

System: methanol + icariin; phases: Liquid, Crystal
Fixed: Pressure, kPa = 101
Property: Mole fraction of icariin (Liquid); method: UV spectroscopy
Temperature, K	Mole fraction of icariin	uncertainty
288.2	.0001179	.00000005
293.2	.000127297	.00000005
298.2	.000143954	.00000005
303.2	.000162882	.00000005
308.2	.000174239	.00000005
313.2	.000246916	.00000005
318.2	.000255243	.00000005
323.2	.000299146	.00000005
328.2	.000346072	.00000005
