Measured thermophysical data. Solid liquid equilibrium in ternary mixtures of ethyl oleate, ethyl laurate and  ethyl palmitate
Source: Fluid Phase Equilib., 2013, 10.1016/j.fluid.2012.11.030
Compound 1: ethyl oleate, C20H38O2, purity 98%
Compound 2: ethyl laurate, C14H28O2, purity 98%
Compound 3: hexadecanoic acid, ethyl ester, C18H36O2, purity 99%

System: ethyl oleate; phases: Crystal, Liquid, Air at 1 atmosphere
Property: Molar enthalpy of transition or fusion, kJ/mol (Crystal); method: DSC/DTA
Molar enthalpy of transition or fusion, kJ/mol	uncertainty
47.726081724	

System: ethyl oleate; phases: Crystal, Liquid, Air at 1 atmosphere
Property: Normal melting temperature, K (Crystal); method: DSC/DTA
Normal melting temperature, K	uncertainty
254.09	.3

System: ethyl laurate; phases: Crystal, Liquid, Air at 1 atmosphere
Property: Molar enthalpy of transition or fusion, kJ/mol (Crystal); method: DSC/DTA
Molar enthalpy of transition or fusion, kJ/mol	uncertainty
39.827888448	

System: ethyl laurate; phases: Crystal, Liquid, Air at 1 atmosphere
Property: Normal melting temperature, K (Crystal); method: DSC/DTA
Normal melting temperature, K	uncertainty
273.2	.3

System: hexadecanoic acid, ethyl ester; phases: Crystal, Liquid, Air at 1 atmosphere
Property: Molar enthalpy of transition or fusion, kJ/mol (Crystal); method: DSC/DTA
Molar enthalpy of transition or fusion, kJ/mol	uncertainty
55.7518494952	

System: hexadecanoic acid, ethyl ester; phases: Crystal, Liquid, Air at 1 atmosphere
Property: Normal melting temperature, K (Crystal); method: DSC/DTA
Normal melting temperature, K	uncertainty
298.23	.3

System: ethyl laurate + ethyl oleate; phases: Liquid, Crystal
Fixed: Pressure, kPa = 101
Property: Solid-liquid equilibrium temperature, K (Liquid); method: DSC/DTA
Mole fraction of ethyl oleate	Solid-liquid equilibrium temperature, K	uncertainty
0	273.2	.3
.1061	271.44	.3
.2078	269.43	.3
.2991	267.3	.3
.3957	264.48	.3
.5001	261.79	.3
.5925	259.31	.3
.6839	255.63	.3

System: ethyl laurate + ethyl oleate; phases: Liquid, Crystal
Fixed: Pressure, kPa = 101
Property: Solid-liquid equilibrium temperature, K (Liquid); method: DSC/DTA
Mole fraction of ethyl oleate	Solid-liquid equilibrium temperature, K	uncertainty
.8818	251.97	.3
1	254.09	.3

System: ethyl laurate + ethyl oleate; phases: Liquid, Crystal, Crystal
Property: Eutectic temperature, K (Liquid); method: DSC/DTA
Mole fraction of ethyl oleate	Eutectic temperature, K	uncertainty
.7846	250.19	.3

System: ethyl oleate + hexadecanoic acid, ethyl ester; phases: Liquid, Crystal
Fixed: Pressure, kPa = 101
Property: Solid-liquid equilibrium temperature, K (Liquid); method: DSC/DTA
Mole fraction of ethyl oleate	Solid-liquid equilibrium temperature, K	uncertainty
0	298.23	.3
.1083	296	.3
.2048	294.56	.3
.3061	293.41	.3
.3942	290.91	.3
.4941	288.81	.3
.5894	285.62	.3
.641	285.1	.3
.6959	282.29	.3
.7995	278.08	.3
.9028	271.71	.3

System: ethyl oleate + hexadecanoic acid, ethyl ester; phases: Liquid, Crystal
Fixed: Pressure, kPa = 101
Property: Solid-liquid equilibrium temperature, K (Liquid); method: DSC/DTA
Mole fraction of ethyl oleate	Solid-liquid equilibrium temperature, K	uncertainty
1	254.09	.3

System: ethyl laurate + hexadecanoic acid, ethyl ester; phases: Liquid, Crystal
Fixed: Pressure, kPa = 101
Property: Solid-liquid equilibrium temperature, K (Liquid); method: DSC/DTA
Mole fraction of ethyl laurate	Solid-liquid equilibrium temperature, K	uncertainty
0	298.23	.3
.1281	295.52	.3
.2077	294.31	.3
.306	292.4	.3
.3935	291.17	.3
.5029	288.48	.3
.5929	285.75	.3
.7033	282.1	.3
.7868	278.23	.3

System: ethyl laurate + hexadecanoic acid, ethyl ester; phases: Liquid, Crystal
Fixed: Pressure, kPa = 101
Property: Solid-liquid equilibrium temperature, K (Liquid); method: DSC/DTA
Mole fraction of ethyl laurate	Solid-liquid equilibrium temperature, K	uncertainty
.9502	271.38	.3
1	273.2	.3

System: ethyl laurate + hexadecanoic acid, ethyl ester; phases: Liquid, Crystal, Crystal
Property: Eutectic temperature, K (Liquid); method: DSC/DTA
Mole fraction of ethyl laurate	Eutectic temperature, K	uncertainty
.9106	268.81	.3

System: ethyl laurate + ethyl oleate + hexadecanoic acid, ethyl ester; phases: Liquid, Crystal
Fixed: Pressure, kPa = 101
Property: Solid-liquid equilibrium temperature, K (Liquid); method: DSC/DTA
Mole fraction of ethyl oleate	Mole fraction of ethyl laurate	Solid-liquid equilibrium temperature, K	uncertainty
.0918	.7792	273.39	.3
.1923	.6789	272.59	.3
.2809	.5841	273.7	.3
.3918	.4687	274.14	.3
.4955	.4038	271.3	.3
.5509	.3192	273.91	.3
.6369	.2245	274.02	.3
.7282	.1247	275.04	.3
.1001	.6999	277.67	.3
.2225	.5697	278.19	.3
.2783	.4958	279.62	.3
.3236	.4119	281.72	.3
.4903	.2752	279.69	.3
.6067	.2241	276.34	.3
.6576	.1059	282.83	.3
.103	.599	282.23	.3
.1986	.4987	282.83	.3
.2526	.4	284.37	.3
.3576	.2859	284.64	.3
.4909	.1745	283.66	.3
.5706	.1104	283.13	.3
.1008	.489	286.55	.3
.2006	.4069	286.54	.3
.2754	.3182	285.44	.3
.3666	.1972	288.66	.3
.4687	.1156	286.22	.3
.1007	.41	288.98	.3
.2062	.2965	288.67	.3
.2753	.2549	289.6	.3
.3448	.1834	288.27	.3
.0977	.3075	290.86	.3
.1896	.1933	292.29	.3
.2725	.1372	295.96	.3
.0954	.2071	292.95	.3
.2261	.0834	293.64	.3
.1124	.0989	294.48	.3
