Measured thermophysical data. Quantitative comparison between predicted and experimental binary n-alkane p benzene phase behaviors using cubic and PC-SAFT EOS
Source: Fluid Phase Equilib., 2016, 10.1016/j.fluid.2016.07.004
Compound 1: benzene, C6H6
Compound 2: heptane, C7H16

System: benzene; phases: Liquid, Gas
Property: Vapor or sublimation pressure, kPa (Liquid); method: X-ray view cell
Temperature, K	Vapor or sublimation pressure, kPa	uncertainty
378.35	205	
401.25	366	
421.85	572	
437.45	778	
460.35	1173	
480.45	1622	
500.15	2183	
520.05	2877	

System: benzene + heptane; phases: Liquid, Gas
Fixed: Mole fraction of benzene = .6986
Property: Vapor or sublimation pressure, kPa (Liquid); method: X-ray View cell
Temperature, K	Vapor or sublimation pressure, kPa	uncertainty
412.97	461	
427.96	622	
442.96	824	
457.96	1072	
472.96	1372	
487.96	1732	
