Measured thermophysical data. Choline based ionic liquids: Interfacial properties of RTILs with strong hydrogen  bonding
Source: Fluid Phase Equilib., 2012, 10.1016/j.fluid.2012.03.016
Compound 1: choline, propionate, C8H19NO3, purity 98%
Compound 2: 2-hydroxy-N,N,N-trimethylethanaminium (2E)-2-methyl-2-butenoate, C10H21NO3, purity 98%
Compound 3: 2-hydroxy-N,N,N-trimethylethanaminium 3-carboxypropanoate, C9H19NO5, purity 98%

System: choline, propionate; phases: Liquid, Air at 1 atmosphere
Property: Surface tension liquid-gas, N/m (Liquid); method: Pendant drop shape
Temperature, K	Surface tension liquid-gas, N/m	uncertainty
294	.0346	.0005
302.6	.0333	.0005
313.7	.0326	.0005
324.1	.0323	.0005
333.8	.0317	.0005
343.4	.0312	.0005
354.5	.0309	.0005
373.4	.0295	.0005
392.6	.0286	.0005

System: 2-hydroxy-N,N,N-trimethylethanaminium (2E)-2-methyl-2-butenoate; phases: Liquid, Air at 1 atmosphere
Property: Surface tension liquid-gas, N/m (Liquid); method: Pendant drop shape
Temperature, K	Surface tension liquid-gas, N/m	uncertainty
294	.0316	.0005
303.9	.0307	.0005
314.2	.0307	.0005
323.9	.0309	.0005
333.5	.0302	.0005
338	.0298	.0005
340.1	.0299	.0005
346.2	.0299	.0005
348.2	.0285	.0005
357.4	.028	.0005
362.5	.0282	.0005
373	.0276	.0005
379.5	.0261	.0005
391.8	.0264	.0005

System: 2-hydroxy-N,N,N-trimethylethanaminium 3-carboxypropanoate; phases: Liquid, Air at 1 atmosphere
Property: Surface tension liquid-gas, N/m (Liquid); method: Pendant drop shape
Temperature, K	Surface tension liquid-gas, N/m	uncertainty
308.2	.0407	.0005
313.9	.0404	.0005
319.2	.0401	.0005
324	.0395	.0005
328.5	.0395	.0005
333.6	.0389	.0005
339.4	.0384	.0005
