Measured thermophysical data. Effect of polymorphism on thermodynamic properties of cefamandole nafate
Source: Fluid Phase Equilib., 2016, 10.1016/j.fluid.2016.02.037
Compound 1: water, H2O
Compound 2: ethanol, C2H6O, purity 99.5%
Compound 3: isopropyl alcohol, C3H8O, purity 99.5%
Compound 4: acetone, C3H6O, purity 99.5%
Compound 5: cefamandole nafate, C19H17N6NaO6S2, purity 99.0%

System: cefamandole nafate; phases: Crystal, Liquid, Air at 1 atmosphere
Property: Normal melting temperature, K (Crystal); method: DSC/DTA
Normal melting temperature, K	uncertainty
442.5	.5

System: cefamandole nafate; phases: Crystal, Liquid, Air at 1 atmosphere
Property: Molar enthalpy of transition or fusion, kJ/mol (Crystal); method: DSC
Molar enthalpy of transition or fusion, kJ/mol	uncertainty
18.88	.5664

System: cefamandole nafate; phases: Crystal, Liquid, Air at 1 atmosphere
Property: Normal melting temperature, K (Crystal); method: DSC/DTA
Normal melting temperature, K	uncertainty
437	.5

System: cefamandole nafate; phases: Crystal, Liquid, Air at 1 atmosphere
Property: Molar enthalpy of transition or fusion, kJ/mol (Crystal); method: DSC
Molar enthalpy of transition or fusion, kJ/mol	uncertainty
13.93	.4179

System: ethanol + water + cefamandole nafate; phases: Liquid, Crystal
Fixed: Pressure, kPa = 101
Property: Mole fraction of cefamandole nafate (Liquid); method: gravimetric
Temperature, K	Solvent: Mole fraction of ethanol	Mole fraction of cefamandole nafate	uncertainty
278.15	1	.005845	
278.15	.7994	.004755	
278.15	.6986	.003595	
278.15	.5985	.002542	
278.15	.5498	.002081	
278.15	.4992	.001712	
278.15	.4496	.001437	
278.15	.3995	.0009834	
278.15	.2999	.0004578	
278.15	.1498	.000287	
278.15	0	.0002779	
283.15	1	.009221	
283.15	.7994	.0058	
283.15	.6986	.00481	
283.15	.5985	.003227	
283.15	.5498	.002629	
283.15	.4992	.002231	
283.15	.4496	.001765	
283.15	.3995	.001169	
283.15	.2999	.0007357	
283.15	.1498	.0003877	
283.15	0	.0003142	
288.15	1	.014	
288.15	.7994	.00821	
288.15	.6986	.006551	
288.15	.5985	.004505	
288.15	.5498	.003764	
288.15	.4992	.002874	
288.15	.4496	.002315	
288.15	.3995	.001592	
288.15	.2999	.0008605	
288.15	.1498	.0004585	
288.15	0	.0003921	
293.15	1	.02289	
293.15	.7994	.01398	
293.15	.6986	.01082	
293.15	.5985	.00756	
293.15	.5498	.00536	
293.15	.4992	.004425	
293.15	.4496	.003006	
293.15	.3995	.002252	
293.15	.2999	.001298	
293.15	.1498	.000587	
293.15	0	.000512	
298.15	1	.03299	
298.15	.7994	.0205	
298.15	.6986	.015	
298.15	.5985	.01063	
298.15	.5498	.008472	
298.15	.4992	.006258	
298.15	.4496	.004544	
298.15	.3995	.003571	
298.15	.2999	.001648	
298.15	.1498	.0008484	
298.15	0	.0006356	
303.15	1	.06221	
303.15	.7994	.03394	
303.15	.6986	.02415	
303.15	.5985	.01629	
303.15	.5498	.01231	
303.15	.4992	.008455	
303.15	.4496	.006859	
303.15	.3995	.004804	
303.15	.2999	.002621	
303.15	.1498	.001114	
303.15	0	.0009524	
308.15	1	.1039	
308.15	.7994	.06023	
308.15	.6986	.04085	
308.15	.5985	.02707	
308.15	.5498	.01954	
308.15	.4992	.01471	
308.15	.4496	.009569	
308.15	.3995	.00686	
308.15	.2999	.004011	
308.15	.1498	.001533	
308.15	0	.001056	

System: ethanol + water + cefamandole nafate; phases: Liquid, Crystal
Fixed: Pressure, kPa = 101
Property: Mole fraction of cefamandole nafate (Liquid); method: gravimetric
Temperature, K	Solvent: Mole fraction of ethanol	Mole fraction of cefamandole nafate	uncertainty
278.15	1	.035	
278.15	.7967	.02101	
278.15	.6993	.01603	
278.15	.5999	.01135	
278.15	.5499	.008924	
278.15	.4998	.006892	
278.15	.4492	.00512	
278.15	.3997	.003514	
278.15	.2999	.002011	
278.15	.1498	.0006537	
278.15	0	.0003826	
283.15	1	.0504	
283.15	.7967	.02803	
283.15	.6993	.02023	
283.15	.5999	.01384	
283.15	.5499	.01059	
283.15	.4998	.007609	
283.15	.4492	.005663	
283.15	.3997	.00432	
283.15	.2999	.002335	
283.15	.1498	.000881	
283.15	0	.0005456	
288.15	1	.06241	
288.15	.7967	.03595	
288.15	.6993	.0251	
288.15	.5999	.01689	
288.15	.5499	.01339	
288.15	.4998	.01013	
288.15	.4492	.007479	
288.15	.3997	.004554	
288.15	.2999	.002881	
288.15	.1498	.0009533	
288.15	0	.0005827	
293.15	1	.08095	
293.15	.7967	.04361	
293.15	.6993	.03	
293.15	.5999	.02026	
293.15	.5499	.01637	
293.15	.4998	.01325	
293.15	.4492	.009569	
293.15	.3997	.006605	
293.15	.2999	.003954	
293.15	.1498	.001243	
293.15	0	.0007565	
298.15	1	.1056	
298.15	.7967	.05532	
298.15	.6993	.03846	
298.15	.5999	.02547	
298.15	.5499	.01992	
298.15	.4998	.01584	
298.15	.4492	.01149	
298.15	.3997	.007992	
298.15	.2999	.00472	
298.15	.1498	.001566	
298.15	0	.0009396	
303.15	1	.1468	
303.15	.7967	.07789	
303.15	.6993	.05546	
303.15	.5999	.03358	
303.15	.5499	.02564	
303.15	.4998	.01954	
303.15	.4492	.01414	
303.15	.3997	.009711	
303.15	.2999	.005929	
303.15	.1498	.00214	
303.15	0	.001294	
308.15	1	.2001	
308.15	.7967	.1102	
308.15	.6993	.07895	
308.15	.5999	.05269	
308.15	.5499	.03988	
308.15	.4998	.03002	
308.15	.4492	.0208	
308.15	.3997	.01329	
308.15	.2999	.008006	
308.15	.1498	.002806	
308.15	0	.001527	

System: ethanol + cefamandole nafate; phases: Liquid, Crystal
Property: Mole fraction of cefamandole nafate (Liquid); method: gravimetric
Temperature, K	Pressure, kPa	Mole fraction of cefamandole nafate	uncertainty
278.15	101	.005845	
283.15	101	.009221	
288.15	101	.014	
293.15	101	.02289	
298.15	101	.03299	
303.15	101	.06221	
308.15	101	.1039	

System: ethanol + cefamandole nafate; phases: Liquid, Crystal
Property: Mole fraction of cefamandole nafate (Liquid); method: gravimetric
Temperature, K	Pressure, kPa	Mole fraction of cefamandole nafate	uncertainty
278.15	101	.035	
283.15	101	.0504	
288.15	101	.06241	
293.15	101	.08095	
298.15	101	.1056	
303.15	101	.1468	
308.15	101	.2001	

System: water + cefamandole nafate; phases: Liquid, Crystal
Property: Mole fraction of cefamandole nafate (Liquid); method: gravimetric
Temperature, K	Pressure, kPa	Mole fraction of cefamandole nafate	uncertainty
278.15	101	.0002779	
283.15	101	.0003142	
288.15	101	.0003921	
293.15	101	.000512	
298.15	101	.0006356	
303.15	101	.0009524	
308.15	101	.001056	

System: water + cefamandole nafate; phases: Liquid, Crystal
Property: Mole fraction of cefamandole nafate (Liquid); method: gravimetric
Temperature, K	Pressure, kPa	Mole fraction of cefamandole nafate	uncertainty
278.15	101	.0003826	
283.15	101	.0005456	
288.15	101	.0005827	
293.15	101	.0007565	
298.15	101	.0009396	
303.15	101	.001294	
308.15	101	.001527	
