Measured thermophysical data. Isothermal vapor-liquid equilibrium data for the trifluoromethane (R23) + 2,3,3,3-tetrafluoroprop-1-ene (R1234yf) system at temperatures from 254 to 348 K
Source: Fluid Phase Equilib., 2016, 10.1016/j.fluid.2016.02.005
Compound 1: 2,3,3,3-tetrafluoroprop-1-ene, C3H2F4
Compound 2: trifluoromethane, CHF3, purity 99.5%

System: 2,3,3,3-tetrafluoroprop-1-ene; phases: Liquid, Gas
Property: Vapor or sublimation pressure, kPa (Liquid); method: Closed cell (Static) method
Temperature, K	Vapor or sublimation pressure, kPa	uncertainty
254.1	156.8	
273.43	318.2	
293.24	592.7	
303.17	783.9	
318.08	1153.4	
332.97	1641.5	
348.4	2288.8	

System: trifluoromethane + 2,3,3,3-tetrafluoroprop-1-ene; phases: Liquid, Gas
Property: Vapor or sublimation pressure, kPa (Liquid); method: Closed cell (Static) method
Mole fraction of trifluoromethane	Temperature, K	Vapor or sublimation pressure, kPa	uncertainty
0	254.1	156.8	
.147	254.1	350.5	
.28	254.1	508.8	
.411	254.1	667.9	
.538	254.1	821.9	
.676	254.1	992.6	
.787	254.1	1137.8	
.913	254.1	1316.2	
0	273.43	318.2	
.096	273.43	517.6	
.242	273.43	806.2	
.372	273.43	1069.5	
.515	273.43	1354.3	
.657	273.43	1655.7	
.781	273.43	1936.5	
.904	273.43	2248.2	
0	293.24	592.7	
.091	293.24	886.3	
.195	293.24	1187.1	
.323	293.24	1579.9	
.493	293.24	2102.3	
.623	293.24	2540.1	
.779	293.24	3117.1	
.869	293.24	3499.4	
0	303.17	783.9	
.119	303.17	1204.4	
.259	303.17	1699.1	
.364	303.17	2077.6	
.451	303.17	2430	
.567	303.17	2902.7	
.636	303.17	3204.2	
.72	303.17	3580.1	
.791	303.17	3932.6	
.841	303.17	4191.3	
.885	303.17	4444.6	
.919	303.17	4655.8	
.943	303.17	4815.8	
0	318.08	1153.4	
.062	318.08	1428.3	
.183	318.08	1963.3	
.281	318.08	2406	
.391	318.08	2919.3	
.483	318.08	3387.9	
.571	318.08	3845.8	
.671	318.08	4405.5	
.72	318.08	4698.8	
.754	318.08	4875.7	
.761	318.08	4914.7	
0	332.97	1641.5	
.073	332.97	2033.1	
.145	332.97	2413.3	
.202	332.97	2720.2	
.249	332.97	2982.8	
.326	332.97	3412.6	
.39	332.97	3782.6	
.432	332.97	4031.6	
.488	332.97	4359.9	
.545	332.97	4675.4	
.553	332.97	4713.8	
0	348.4	2288.8	
.039	348.4	2540.2	
.066	348.4	2681	
.095	348.4	2884.7	
.12	348.4	3033.8	
.145	348.4	3195.6	
.158	348.4	3285.8	
.189	348.4	3467.9	
.218	348.4	3667.5	
.237	348.4	3767.1	
.264	348.4	3948	
.287	348.4	4090.1	
.324	348.4	4281.6	
.33	348.4	4302.4	
.345	348.4	4355.3	

System: trifluoromethane + 2,3,3,3-tetrafluoroprop-1-ene; phases: Gas, Liquid
Property: Mole fraction of trifluoromethane (Gas); method: Chromatography
Mole fraction of trifluoromethane	Temperature, K	Mole fraction of trifluoromethane	uncertainty
0	254.1	0	
.147	254.1	.583	
.28	254.1	.742	
.411	254.1	.828	
.538	254.1	.882	
.676	254.1	.925	
.787	254.1	.952	
.913	254.1	.981	
0	273.43	0	
.096	273.43	.398	
.242	273.43	.645	
.372	273.43	.756	
.515	273.43	.835	
.657	273.43	.891	
.781	273.43	.932	
.904	273.43	.971	
0	293.24	0	
.091	293.24	.323	
.195	293.24	.521	
.323	293.24	.664	
.493	293.24	.778	
.623	293.24	.838	
.779	293.24	.904	
.869	293.24	.939	
0	303.17	0	
.119	303.17	.35	
.259	303.17	.56	
.364	303.17	.659	
.451	303.17	.716	
.567	303.17	.786	
.636	303.17	.823	
.72	303.17	.857	
.791	303.17	.888	
.841	303.17	.909	
.885	303.17	.928	
.919	303.17	.943	
.943	303.17	.954	
0	318.08	0	
.062	318.08	.183	
.183	318.08	.411	
.281	318.08	.527	
.391	318.08	.619	
.483	318.08	.683	
.571	318.08	.729	
.671	318.08	.774	
.72	318.08	.789	
.754	318.08	.795	
.761	318.08	.797	
0	332.97	0	
.073	332.97	.174	
.145	332.97	.3	
.202	332.97	.377	
.249	332.97	.43	
.326	332.97	.5	
.39	332.97	.545	
.432	332.97	.57	
.488	332.97	.597	
.545	332.97	.611	
.553	332.97	.611	
0	348.4	0	
.039	348.4	.079	
.066	348.4	.128	
.095	348.4	.17	
.12	348.4	.209	
.145	348.4	.239	
.158	348.4	.256	
.189	348.4	.288	
.218	348.4	.316	
.237	348.4	.331	
.264	348.4	.351	
.287	348.4	.361	
.324	348.4	.371	
.33	348.4	.372	
.345	348.4	.365	

System: trifluoromethane + 2,3,3,3-tetrafluoroprop-1-ene; phases: Liquid, Gas
Property: Critical temperature, K (Liquid); method: scaling laws
Mole fraction of trifluoromethane	Critical temperature, K	uncertainty
.96	303.17	
.79	318.08	
.6	332.97	
.35	348.4	

System: trifluoromethane + 2,3,3,3-tetrafluoroprop-1-ene; phases: Liquid, Gas
Property: Critical pressure, kPa (Liquid); method: scaling laws
Mole fraction of trifluoromethane	Critical pressure, kPa	uncertainty
.96	4900	
.79	4990	
.6	4870	
.35	4360	
