Measured thermophysical data. Phase equilibria in binary mixtures with monoethyl succinate
Source: Fluid Phase Equilib., 2011, 10.1016/j.fluid.2011.06.020
Compound 1: monoethyl succinate, C6H10O4, purity 97.5%
Compound 2: ethanol, C2H6O, purity 99.9%
Compound 3: water, H2O, purity 99.8%
Compound 4: ethyl ethanoate, C4H8O2, purity 99.99%
Compound 5: ethanoic acid, C2H4O2, purity 99.9%

System: monoethyl succinate; phases: Liquid, Gas
Property: Vapor or sublimation pressure, kPa (Liquid); method: Closed cell (Static) method
Temperature, K	Vapor or sublimation pressure, kPa	uncertainty
417.7	1.5866	.0015
421.2	2.0889	.0015
425.1	2.5913	.0015
428.5	3.0936	.0015
433	3.5959	.0015
435.6	4.0982	.0015
436.7	4.6005	.0015
439.8	5.1028	.0015
440.3	5.6052	.0015
443	6.1075	.0015
444.3	6.6098	.0015
445.9	7.1121	.0015
447.6	7.6144	.0015
449.1	8.1168	.0015
450.5	8.6191	.0015
452.1	9.1214	.0015
453.2	9.6237	.0015
454.7	10.126	.0015
455.7	10.6284	.0015
456.5	11.1307	.0015
457.2	11.633	.0015
458.2	12.1353	.0015
458.4	12.6376	.0015
459.8	13.1399	.0015
460.1	13.6423	.0015
460.3	14.1446	.0015
461.1	14.6469	.0015
462	15.1492	.0015
463.3	15.6515	.0015
463.8	16.1539	.0015
464.2	16.6562	.0015
464.5	17.1585	.0015
465.2	17.6608	.0015
465.8	18.1631	.0015
466.7	18.6655	.0015
467.3	19.1678	.0015
467.8	19.6701	.0015
468.3	20.1724	.0015
468.8	20.6747	.0015
469.5	21.177	.0015
469.7	21.6794	.0015
469.8	22.1817	.0015
470.1	22.684	.0015
470.3	23.1863	.0015
470.4	23.6886	.0015
470.5	24.191	.0015
471.1	24.6933	.0015
471.4	25.1956	.0015
471.9	25.6979	.0015

System: ethyl ethanoate + monoethyl succinate; phases: Liquid, Gas
Fixed: Temperature, K = 323.15
Property: Vapor or sublimation pressure, kPa (Liquid); method: Ebulliometric method (Recirculating still)
Mole fraction of ethyl ethanoate	Vapor or sublimation pressure, kPa	uncertainty
0	.1333	.0015
.029	1.5065	.0015
.152	7.4394	.0015
.232	11.0658	.0015
.294	13.9589	.0015
.299	14.3188	.0015
.396	17.8252	.0015
.413	18.4118	.0015
.524	22.7715	.0015
.539	23.1048	.0015
.763	30.6375	.0015
.765	31.3441	.0015
.776	31.6507	.0015
.919	35.1171	.0015
1	37.6902	.0015

System: ethanoic acid + monoethyl succinate; phases: Liquid, Gas
Fixed: Temperature, K = 323.15
Property: Vapor or sublimation pressure, kPa (Liquid); method: Ebulliometric method (Recirculating still)
Mole fraction of ethanoic acid	Vapor or sublimation pressure, kPa	uncertainty
0	.1333	.0015
.191	.7066	.0015
.269	.8666	.0015
.284	1.0799	.0015
.364	1.5465	.0015
.399	1.6265	.0015
.472	2.0398	.0015
.443	2.1732	.0015
.603	3.1597	.0015
.624	3.2397	.0015
.63	3.493	.0015
.655	3.6397	.0015
.733	4.493	.0015
.853	6.0262	.0015
1	7.4927	.0015

System: monoethyl succinate + water; phases: Liquid, Gas
Fixed: Temperature, K = 323.15
Property: Vapor or sublimation pressure, kPa (Liquid); method: Ebulliometric method (Recirculating still)
Mole fraction of water	Vapor or sublimation pressure, kPa	uncertainty
0	.1333	.0015
.109	2.6398	.0015
.206	4.2397	.0015
.265	5.1462	.0015
.323	6.5328	.0015
.325	6.7994	.0015
.592	10.1858	.0015
.625	10.1858	.0015
.769	11.3191	.0015
.89	11.7457	.0015
1	12.2257	.0015

System: ethanol + monoethyl succinate; phases: Liquid, Gas
Fixed: Temperature, K = 313.15
Property: Vapor or sublimation pressure, kPa (Liquid); method: Ebulliometric method (Recirculating still)
Mole fraction of ethanol	Vapor or sublimation pressure, kPa	uncertainty
0	.0267	.0015
.015	.4266	.0015
.03	.8133	.0015
.032	.7466	.0015
.17	3.0398	.0015
.192	3.1197	.0015
.279	4.7729	.0015
.363	5.7729	.0015
.387	6.6528	.0015
.515	8.7459	.0015
.603	10.3458	.0015
.617	10.2792	.0015
.729	12.9989	.0015
.751	13.1589	.0015
.88	15.6787	.0015
.971	17.2652	.0015
1	17.6386	.0015
