Measured thermophysical data. Study of interaction between organic compounds and mono or dicationic oxygenated ionic liquids using gas chromatography
Source: Fluid Phase Equilib., 2015, 10.1016/j.fluid.2014.11.020
Compound 1: 1-methyl-3-(propoxymethyl)-1H-imidazolium bis[(trifluoromethyl)sulfonyl]imide, C10H15F6N3O5S2, purity 99%
Compound 2: 1-methyl-3-(propoxymethyl)-1H-imidazolium dicyanamide, C10H15N5O, purity 99%
Compound 3: 1-methyl-3-(propoxymethyl)-1H-imidazolium tetrafluoroborate, C8H15BF4N2O, purity 99%
Compound 4: 2-methyl-1-octyl-3-(propoxymethyl)-1H-imidazolium bis[(trifluoromethyl)sulfonyl]imide, C18H31F6N3O5S2, purity 99%
Compound 5: 2-methyl-1-octyl-3-(propoxymethyl)-1H-imidazolium dicyanamide, C18H31N5O, purity 99%
Compound 6: 1-benzyl-3-(propoxymethyl)-1H-imidazolium bis[(trifluoromethyl)sulfonyl]imide, C16H19F6N3O5S2, purity 99%
Compound 7: 1-benzyl-3-(propoxymethyl)-1H-imidazolium dicyanamide, C16H19N5O, purity 99%
Compound 8: 1-benzyl-3-(propoxymethyl)-1H-imidazolium tetrafluoroborate, C14H19BF4N2O, purity 99%
Compound 9: 3,3'-[propane-1,3-diylbis(oxymethanediyl)]bis(1-benzyl-1H-imidazol-3-ium) bis(dicyanamide), C29H30N10O2, purity 99%
Compound 10: 3,3'-[propane-1,3-diylbis(oxymethanediyl)]bis(1-methyl-1H-imidazol-3-ium) bis(dicyanamide), C17H22N10O2, purity 99%
Compound 11: 3,3'-[propane-1,3-diylbis(oxymethanediyl)]bis(1-methyl-1H-imidazol-3-ium) bis{bis[(trifluoromethyl)sulfonyl]imide}, C17H22F12N6O10S4, purity 99%
Compound 12: 3,3'-[propane-1,3-diylbis(oxymethanediyl)]bis(2-methyl-1-octyl-1H-imidazol-3-ium) bis(dicyanamide), C33H54N10O2, purity 99%
Compound 13: 3,3'-[propane-1,3-diylbis(oxymethanediyl)]bis(2-methyl-1-octyl-1H-imidazol-3-ium) bis{bis[(trifluoromethyl)sulfonyl]imide}, C33H54F12N6O10S4, purity 99%
Compound 14: 3,3'-[propane-1,3-diylbis(oxymethanediyl)]bis(2-methyl-1-octyl-1H-imidazol-3-ium) ditetrafluoroborate, C29H54B2F8N4O2, purity 99%
Compound 15: 4-(dimethylamino)-1-(propoxymethyl)pyridinium bis[(trifluoromethyl)sulfonyl]imide, C13H19F6N3O5S2, purity 99%
Compound 16: 1,1'-[propane-1,3-diylbis(oxymethanediyl)]bis[4-(dimethylamino)pyridinium] bis{bis[(trifluoromethyl)sulfonyl]imide}, C23H30F12N6O10S4, purity 99%
Compound 17: hexane, C6H14, purity 99.5%
Compound 18: 3-methylpentane, C6H14, purity 99.5%
Compound 19: heptane, C7H16, purity 99.5%
Compound 20: 2,2,4-trimethylpentane, C8H18, purity 99.5%
Compound 21: octane, C8H18, purity 99.5%
Compound 22: nonane, C9H20, purity 99.5%
Compound 23: decane, C10H22, purity 99.5%
Compound 24: undecane, C11H24, purity 99.5%
Compound 25: dodecane, C12H26, purity 99.5%
Compound 26: tridecane, C13H28, purity 99.5%
Compound 27: tetradecane, C14H30, purity 99.5%
Compound 28: methylcyclopentane, C6H12, purity 99.5%
Compound 29: cyclohexane, C6H12, purity 99.5%
Compound 30: methylcyclohexane, C7H14, purity 99.5%
Compound 31: cycloheptane, C7H14, purity 99.5%
Compound 32: benzene, C6H6, purity 99.5%
Compound 33: toluene, C7H8, purity 99.5%
Compound 34: ethylbenzene, C8H10, purity 99.5%
Compound 35: m-xylene, C8H10, purity 99.5%
Compound 36: p-xylene, C8H10, purity 99.5%
Compound 37: o-xylene, C8H10, purity 99.5%
Compound 38: 1-hexene, C6H12, purity 99.5%
Compound 39: 1-hexyne, C6H10, purity 99.5%
Compound 40: 1-heptyne, C7H12, purity 99.5%
Compound 41: 2-butanone, C4H8O, purity 99.5%
Compound 42: 2-pentanone, C5H10O, purity 99.5%
Compound 43: 1,4-dioxane, C4H8O2, purity 99.5%
Compound 44: methanol, CH4O, purity 99.5%
Compound 45: ethanol, C2H6O, purity 99.5%
Compound 46: 1-propanol, C3H8O, purity 99.5%
Compound 47: 2-propanol, C3H8O, purity 99.5%
Compound 48: 2-methyl-1-propanol, C4H10O, purity 99.5%
Compound 49: 1-butanol, C4H10O, purity 99.5%
Compound 50: trifluoroethanol, C2H3F3O, purity 99.5%
Compound 51: diethyl ether, C4H10O, purity 99.5%
Compound 52: diisopropyl ether, C6H14O, purity 99.5%
Compound 53: chloroform, CHCl3, purity 99.5%
Compound 54: dichloromethane, CH2Cl2, purity 99.5%
Compound 55: tetrachloromethane, CCl4, purity 99.5%
Compound 56: acetonitrile, C2H3N, purity 99.5%
Compound 57: nitromethane, CH3NO2, purity 99.5%
Compound 58: 1-nitropropane, C3H7NO2, purity 99.5%
Compound 59: triethylamine, C6H15N, purity 99.5%
Compound 60: pyridine, C5H5N, purity 99.5%
Compound 61: thiophene, C4H4S, purity 99.5%
Compound 62: 3-pentanone, C5H10O, purity 99.5%

System: 1-methyl-3-(propoxymethyl)-1H-imidazolium bis[(trifluoromethyl)sulfonyl]imide + hexane; phases: Liquid, Gas
Fixed: Mole fraction of hexane = 0
Property: Activity coefficient of hexane (Liquid); method: Chromatography
Temperature, K	Activity coefficient of hexane	uncertainty
323.15	15.94	.4782
333.15	13.28	.3984

System: 1-methyl-3-(propoxymethyl)-1H-imidazolium bis[(trifluoromethyl)sulfonyl]imide + 3-methylpentane; phases: Liquid, Gas
Fixed: Mole fraction of 3-methylpentane = 0
Property: Activity coefficient of 3-methylpentane (Liquid); method: Chromatography
Temperature, K	Activity coefficient of 3-methylpentane	uncertainty
323.15	14.36	.4308
333.15	10.77	.3231

System: 1-methyl-3-(propoxymethyl)-1H-imidazolium bis[(trifluoromethyl)sulfonyl]imide + heptane; phases: Liquid, Gas
Fixed: Mole fraction of heptane = 0
Property: Activity coefficient of heptane (Liquid); method: Chromatography
Temperature, K	Activity coefficient of heptane	uncertainty
323.15	22.92	.6876
333.15	20.35	.6105
343.15	17.14	.5142

System: 1-methyl-3-(propoxymethyl)-1H-imidazolium bis[(trifluoromethyl)sulfonyl]imide + octane; phases: Liquid, Gas
Fixed: Mole fraction of octane = 0
Property: Activity coefficient of octane (Liquid); method: Chromatography
Temperature, K	Activity coefficient of octane	uncertainty
323.15	34.08	1.0224
333.15	29.68	.8904
343.15	26.35	.7905

System: 1-methyl-3-(propoxymethyl)-1H-imidazolium bis[(trifluoromethyl)sulfonyl]imide + nonane; phases: Liquid, Gas
Fixed: Mole fraction of nonane = 0
Property: Activity coefficient of nonane (Liquid); method: Chromatography
Temperature, K	Activity coefficient of nonane	uncertainty
323.15	52.35	1.5705
333.15	45.9	1.377
343.15	40.54	1.2162

System: 1-methyl-3-(propoxymethyl)-1H-imidazolium bis[(trifluoromethyl)sulfonyl]imide + decane; phases: Liquid, Gas
Fixed: Mole fraction of decane = 0
Property: Activity coefficient of decane (Liquid); method: Chromatography
Temperature, K	Activity coefficient of decane	uncertainty
323.15	69.56	2.0868
333.15	60.53	1.8159
343.15	52.99	1.5897

System: 1-methyl-3-(propoxymethyl)-1H-imidazolium bis[(trifluoromethyl)sulfonyl]imide + undecane; phases: Liquid, Gas
Fixed: Mole fraction of undecane = 0
Property: Activity coefficient of undecane (Liquid); method: Chromatography
Temperature, K	Activity coefficient of undecane	uncertainty
323.15	89.69	2.6907
333.15	85.93	2.5779
343.15	75.28	2.2584

System: 1-methyl-3-(propoxymethyl)-1H-imidazolium bis[(trifluoromethyl)sulfonyl]imide + dodecane; phases: Liquid, Gas
Fixed: Mole fraction of dodecane = 0
Property: Activity coefficient of dodecane (Liquid); method: Chromatography
Temperature, K	Activity coefficient of dodecane	uncertainty
323.15	132.22	3.9666
333.15	118.18	3.5454
343.15	104.72	3.1416

System: 1-methyl-3-(propoxymethyl)-1H-imidazolium bis[(trifluoromethyl)sulfonyl]imide + tridecane; phases: Liquid, Gas
Fixed: Mole fraction of tridecane = 0
Property: Activity coefficient of tridecane (Liquid); method: Chromatography
Temperature, K	Activity coefficient of tridecane	uncertainty
323.15	200.58	6.0174
333.15	165.42	4.9626
343.15	147.22	4.4166

System: 1-methyl-3-(propoxymethyl)-1H-imidazolium bis[(trifluoromethyl)sulfonyl]imide + cyclohexane; phases: Liquid, Gas
Fixed: Mole fraction of cyclohexane = 0
Property: Activity coefficient of cyclohexane (Liquid); method: Chromatography
Temperature, K	Activity coefficient of cyclohexane	uncertainty
323.15	9.55	.2865
333.15	9.25	.2775
343.15	9.07	.2721

System: 1-methyl-3-(propoxymethyl)-1H-imidazolium bis[(trifluoromethyl)sulfonyl]imide + methylcyclohexane; phases: Liquid, Glass
Fixed: Mole fraction of methylcyclohexane = 0
Property: Activity coefficient of methylcyclohexane (Liquid); method: Chromatography
Temperature, K	Activity coefficient of methylcyclohexane	uncertainty
323.15	13	.39
333.15	12.94	.3882
343.15	12.97	.3891

System: 1-methyl-3-(propoxymethyl)-1H-imidazolium bis[(trifluoromethyl)sulfonyl]imide + cycloheptane; phases: Liquid, Gas
Fixed: Mole fraction of cycloheptane = 0
Property: Activity coefficient of cycloheptane (Liquid); method: Chromatography
Temperature, K	Activity coefficient of cycloheptane	uncertainty
323.15	27.16	.8148
333.15	35.82	1.0746
343.15	46.11	1.3833

System: 1-methyl-3-(propoxymethyl)-1H-imidazolium bis[(trifluoromethyl)sulfonyl]imide + benzene; phases: Liquid, Gas
Fixed: Mole fraction of benzene = 0
Property: Activity coefficient of benzene (Liquid); method: Chromatography
Temperature, K	Activity coefficient of benzene	uncertainty
323.15	1.2	.036
333.15	1.17	.0351
343.15	1.17	.0351

System: 1-methyl-3-(propoxymethyl)-1H-imidazolium bis[(trifluoromethyl)sulfonyl]imide + toluene; phases: Liquid, Gas
Fixed: Mole fraction of toluene = 0
Property: Activity coefficient of toluene (Liquid); method: Chromatography
Temperature, K	Activity coefficient of toluene	uncertainty
323.15	1.7	.051
333.15	1.68	.0504
343.15	1.69	.0507

System: 1-methyl-3-(propoxymethyl)-1H-imidazolium bis[(trifluoromethyl)sulfonyl]imide + ethylbenzene; phases: Liquid, Gas
Fixed: Mole fraction of ethylbenzene = 0
Property: Activity coefficient of ethylbenzene (Liquid); method: Chromatography
Temperature, K	Activity coefficient of ethylbenzene	uncertainty
323.15	2.55	.0765
333.15	2.51	.0753
343.15	2.51	.0753

System: 1-methyl-3-(propoxymethyl)-1H-imidazolium bis[(trifluoromethyl)sulfonyl]imide + m-xylene; phases: Liquid, Gas
Fixed: Mole fraction of m-xylene = 0
Property: Activity coefficient of m-xylene (Liquid); method: Chromatography
Temperature, K	Activity coefficient of m-xylene	uncertainty
323.15	2.59	.0777
333.15	2.54	.0762
343.15	2.54	.0762

System: 1-methyl-3-(propoxymethyl)-1H-imidazolium bis[(trifluoromethyl)sulfonyl]imide + p-xylene; phases: Liquid, Gas
Fixed: Mole fraction of p-xylene = 0
Property: Activity coefficient of p-xylene (Liquid); method: Chromatography
Temperature, K	Activity coefficient of p-xylene	uncertainty
323.15	2.58	.0774
333.15	2.53	.0759
343.15	2.52	.0756

System: 1-methyl-3-(propoxymethyl)-1H-imidazolium bis[(trifluoromethyl)sulfonyl]imide + o-xylene; phases: Liquid, Gas
Fixed: Mole fraction of o-xylene = 0
Property: Activity coefficient of o-xylene (Liquid); method: Chromatography
Temperature, K	Activity coefficient of o-xylene	uncertainty
323.15	2.3	.069
333.15	2.28	.0684
343.15	2.29	.0687

System: 1-methyl-3-(propoxymethyl)-1H-imidazolium bis[(trifluoromethyl)sulfonyl]imide + 1-hexyne; phases: Liquid, Gas
Fixed: Mole fraction of 1-hexyne = 0
Property: Activity coefficient of 1-hexyne (Liquid); method: Chromatography
Temperature, K	Activity coefficient of 1-hexyne	uncertainty
323.15	3.39	.1017
333.15	3.4	.102
343.15	3.4	.102

System: 1-methyl-3-(propoxymethyl)-1H-imidazolium bis[(trifluoromethyl)sulfonyl]imide + 2-butanone; phases: Liquid, Gas
Fixed: Mole fraction of 2-butanone = 0
Property: Activity coefficient of 2-butanone (Liquid); method: Chromatography
Temperature, K	Activity coefficient of 2-butanone	uncertainty
323.15	.47	.0141
333.15	.43	.0129
343.15	.4	.012

System: 1-methyl-3-(propoxymethyl)-1H-imidazolium bis[(trifluoromethyl)sulfonyl]imide + 2-pentanone; phases: Liquid, Gas
Fixed: Mole fraction of 2-pentanone = 0
Property: Activity coefficient of 2-pentanone (Liquid); method: Chromatography
Temperature, K	Activity coefficient of 2-pentanone	uncertainty
323.15	.72	.0216
333.15	.72	.0216
343.15	.73	.0219

System: 1-methyl-3-(propoxymethyl)-1H-imidazolium bis[(trifluoromethyl)sulfonyl]imide + 1,4-dioxane; phases: Liquid, Gas
Fixed: Mole fraction of 1,4-dioxane = 0
Property: Activity coefficient of 1,4-dioxane (Liquid); method: Chromatography
Temperature, K	Activity coefficient of 1,4-dioxane	uncertainty
323.15	.57	.0171
333.15	.57	.0171
343.15	.58	.0174

System: 1-methyl-3-(propoxymethyl)-1H-imidazolium bis[(trifluoromethyl)sulfonyl]imide + methanol; phases: Liquid, Gas
Fixed: Mole fraction of methanol = 0
Property: Activity coefficient of methanol (Liquid); method: Chromatography
Temperature, K	Activity coefficient of methanol	uncertainty
323.15	1.2	.036
333.15	1.12	.0336
343.15	1.04	.0312

System: 1-methyl-3-(propoxymethyl)-1H-imidazolium bis[(trifluoromethyl)sulfonyl]imide + ethanol; phases: Liquid, Gas
Fixed: Mole fraction of ethanol = 0
Property: Activity coefficient of ethanol (Liquid); method: Chromatography
Temperature, K	Activity coefficient of ethanol	uncertainty
323.15	1.51	.0453
333.15	1.36	.0408
343.15	1.26	.0378

System: 1-methyl-3-(propoxymethyl)-1H-imidazolium bis[(trifluoromethyl)sulfonyl]imide + 1-propanol; phases: Liquid, Gas
Fixed: Mole fraction of 1-propanol = 0
Property: Activity coefficient of 1-propanol (Liquid); method: Chromatography
Temperature, K	Activity coefficient of 1-propanol	uncertainty
323.15	1.86	.0558
333.15	1.66	.0498
343.15	1.5	.045

System: 1-methyl-3-(propoxymethyl)-1H-imidazolium bis[(trifluoromethyl)sulfonyl]imide + 2-propanol; phases: Liquid, Gas
Fixed: Mole fraction of 2-propanol = 0
Property: Activity coefficient of 2-propanol (Liquid); method: Chromatography
Temperature, K	Activity coefficient of 2-propanol	uncertainty
323.15	1.9	.057
333.15	1.51	.0453
343.15	1.39	.0417

System: 1-methyl-3-(propoxymethyl)-1H-imidazolium bis[(trifluoromethyl)sulfonyl]imide + 2-methyl-1-propanol; phases: Liquid, Gas
Fixed: Mole fraction of 2-methyl-1-propanol = 0
Property: Activity coefficient of 2-methyl-1-propanol (Liquid); method: Chromatography
Temperature, K	Activity coefficient of 2-methyl-1-propanol	uncertainty
323.15	2.18	.0654
333.15	1.93	.0579
343.15	1.76	.0528

System: 1-methyl-3-(propoxymethyl)-1H-imidazolium bis[(trifluoromethyl)sulfonyl]imide + 1-butanol; phases: Liquid, Gas
Fixed: Mole fraction of 1-butanol = 0
Property: Activity coefficient of 1-butanol (Liquid); method: Chromatography
Temperature, K	Activity coefficient of 1-butanol	uncertainty
323.15	2.37	.0711
333.15	2.09	.0627
343.15	1.89	.0567

System: 1-methyl-3-(propoxymethyl)-1H-imidazolium bis[(trifluoromethyl)sulfonyl]imide + diethyl ether; phases: Liquid, Gas
Fixed: Mole fraction of diethyl ether = 0
Property: Activity coefficient of diethyl ether (Liquid); method: Chromatography
Temperature, K	Activity coefficient of diethyl ether	uncertainty
323.15	2.21	.0663
333.15	2.23	.0669

System: 1-methyl-3-(propoxymethyl)-1H-imidazolium bis[(trifluoromethyl)sulfonyl]imide + diisopropyl ether; phases: Liquid, Gas
Fixed: Mole fraction of diisopropyl ether = 0
Property: Activity coefficient of diisopropyl ether (Liquid); method: Chromatography
Temperature, K	Activity coefficient of diisopropyl ether	uncertainty
323.15	4.69	.1407
333.15	4.82	.1446
343.15	4.46	.1338

System: 1-methyl-3-(propoxymethyl)-1H-imidazolium bis[(trifluoromethyl)sulfonyl]imide + chloroform; phases: Liquid, Gas
Fixed: Mole fraction of chloroform = 0
Property: Activity coefficient of chloroform (Liquid); method: Chromatography
Temperature, K	Activity coefficient of chloroform	uncertainty
323.15	1.03	.0309
333.15	1.06	.0318
343.15	1.06	.0318

System: 1-methyl-3-(propoxymethyl)-1H-imidazolium bis[(trifluoromethyl)sulfonyl]imide + dichloromethane; phases: Liquid, Gas
Fixed: Mole fraction of dichloromethane = 0
Property: Activity coefficient of dichloromethane (Liquid); method: Chromatography
Temperature, K	Activity coefficient of dichloromethane	uncertainty
323.15	.71	.0213
333.15	.79	.0237
343.15	.75	.0225

System: 1-methyl-3-(propoxymethyl)-1H-imidazolium bis[(trifluoromethyl)sulfonyl]imide + tetrachloromethane; phases: Liquid, Gas
Fixed: Mole fraction of tetrachloromethane = 0
Property: Activity coefficient of tetrachloromethane (Liquid); method: Chromatography
Temperature, K	Activity coefficient of tetrachloromethane	uncertainty
323.15	3	.09
333.15	3.05	.0915
343.15	2.85	.0855

System: 1-methyl-3-(propoxymethyl)-1H-imidazolium bis[(trifluoromethyl)sulfonyl]imide + acetonitrile; phases: Liquid, Gas
Fixed: Mole fraction of acetonitrile = 0
Property: Activity coefficient of acetonitrile (Liquid); method: Chromatography
Temperature, K	Activity coefficient of acetonitrile	uncertainty
323.15	.46	.0138
333.15	.46	.0138
343.15	.46	.0138

System: 1-methyl-3-(propoxymethyl)-1H-imidazolium bis[(trifluoromethyl)sulfonyl]imide + nitromethane; phases: Liquid, Gas
Fixed: Mole fraction of nitromethane = 0
Property: Activity coefficient of nitromethane (Liquid); method: Chromatography
Temperature, K	Activity coefficient of nitromethane	uncertainty
323.15	.55	.0165
333.15	.53	.0159
343.15	.53	.0159

System: 1-methyl-3-(propoxymethyl)-1H-imidazolium bis[(trifluoromethyl)sulfonyl]imide + 1-nitropropane; phases: Liquid, Gas
Fixed: Mole fraction of 1-nitropropane = 0
Property: Activity coefficient of 1-nitropropane (Liquid); method: Chromatography
Temperature, K	Activity coefficient of 1-nitropropane	uncertainty
323.15	.74	.0222
333.15	.72	.0216
343.15	.72	.0216

System: 1-methyl-3-(propoxymethyl)-1H-imidazolium bis[(trifluoromethyl)sulfonyl]imide + thiophene; phases: Liquid, Gas
Fixed: Mole fraction of thiophene = 0
Property: Activity coefficient of thiophene (Liquid); method: Chromatography
Temperature, K	Activity coefficient of thiophene	uncertainty
323.15	1.06	.0318
333.15	1.05	.0315
343.15	1.04	.0312

System: octane + 1-methyl-3-(propoxymethyl)-1H-imidazolium tetrafluoroborate; phases: Liquid, Gas
Fixed: Mole fraction of octane = 0
Property: Activity coefficient of octane (Liquid); method: Chromatography
Temperature, K	Activity coefficient of octane	uncertainty
323.15	291.95	8.7585
333.15	212.72	6.3816
343.15	182.31	5.4693

System: nonane + 1-methyl-3-(propoxymethyl)-1H-imidazolium tetrafluoroborate; phases: Liquid, Gas
Fixed: Mole fraction of nonane = 0
Property: Activity coefficient of nonane (Liquid); method: Chromatography
Temperature, K	Activity coefficient of nonane	uncertainty
323.15	553.1	16.593
333.15	383.68	11.5104
343.15	336.78	10.1034

System: decane + 1-methyl-3-(propoxymethyl)-1H-imidazolium tetrafluoroborate; phases: Liquid, Gas
Fixed: Mole fraction of decane = 0
Property: Activity coefficient of decane (Liquid); method: Chromatography
Temperature, K	Activity coefficient of decane	uncertainty
323.15	635.06	19.0518
333.15	572.78	17.1834
343.15	499.62	14.9886

System: undecane + 1-methyl-3-(propoxymethyl)-1H-imidazolium tetrafluoroborate; phases: Liquid, Gas
Fixed: Mole fraction of undecane = 0
Property: Activity coefficient of undecane (Liquid); method: Chromatography
Temperature, K	Activity coefficient of undecane	uncertainty
323.15	910.81	27.3243
333.15	882.63	26.4789
343.15	779.69	23.3907

System: dodecane + 1-methyl-3-(propoxymethyl)-1H-imidazolium tetrafluoroborate; phases: Liquid, Gas
Fixed: Mole fraction of dodecane = 0
Property: Activity coefficient of dodecane (Liquid); method: Chromatography
Temperature, K	Activity coefficient of dodecane	uncertainty
323.15	1161.59	34.8477
333.15	1156.7	34.701
343.15	1150.79	34.5237

System: tridecane + 1-methyl-3-(propoxymethyl)-1H-imidazolium tetrafluoroborate; phases: Liquid, Gas
Fixed: Mole fraction of tridecane = 0
Property: Activity coefficient of tridecane (Liquid); method: Chromatography
Temperature, K	Activity coefficient of tridecane	uncertainty
323.15	1641.74	49.2522
333.15	1633.55	49.0065
343.15	1625.73	48.7719

System: tetradecane + 1-methyl-3-(propoxymethyl)-1H-imidazolium tetrafluoroborate; phases: Liquid, Gas
Fixed: Mole fraction of tetradecane = 0
Property: Activity coefficient of tetradecane (Liquid); method: Chromatography
Temperature, K	Activity coefficient of tetradecane	uncertainty
323.15	2699.11	80.9733
333.15	2500.88	75.0264
343.15	2301.26	69.0378

System: cyclohexane + 1-methyl-3-(propoxymethyl)-1H-imidazolium tetrafluoroborate; phases: Liquid, Gas
Fixed: Mole fraction of cyclohexane = 0
Property: Activity coefficient of cyclohexane (Liquid); method: Chromatography
Temperature, K	Activity coefficient of cyclohexane	uncertainty
323.15	46.69	1.4007
333.15	40.63	1.2189
343.15	36.43	1.0929

System: methylcyclohexane + 1-methyl-3-(propoxymethyl)-1H-imidazolium tetrafluoroborate; phases: Liquid, Gas
Fixed: Mole fraction of methylcyclohexane = 0
Property: Activity coefficient of methylcyclohexane (Liquid); method: Chromatography
Temperature, K	Activity coefficient of methylcyclohexane	uncertainty
323.15	75.95	2.2785
333.15	70.41	2.1123
343.15	59.7	1.791

System: cycloheptane + 1-methyl-3-(propoxymethyl)-1H-imidazolium tetrafluoroborate; phases: Liquid, Gas
Fixed: Mole fraction of cycloheptane = 0
Property: Activity coefficient of cycloheptane (Liquid); method: Chromatography
Temperature, K	Activity coefficient of cycloheptane	uncertainty
323.15	152.68	4.5804
333.15	239.93	7.1979
343.15	244.83	7.3449

System: benzene + 1-methyl-3-(propoxymethyl)-1H-imidazolium tetrafluoroborate; phases: Liquid, Gas
Fixed: Mole fraction of benzene = 0
Property: Activity coefficient of benzene (Liquid); method: Chromatography
Temperature, K	Activity coefficient of benzene	uncertainty
323.15	3.51	.1053
333.15	3.45	.1035
343.15	3.46	.1038

System: toluene + 1-methyl-3-(propoxymethyl)-1H-imidazolium tetrafluoroborate; phases: Liquid, Gas
Fixed: Mole fraction of toluene = 0
Property: Activity coefficient of toluene (Liquid); method: Chromatography
Temperature, K	Activity coefficient of toluene	uncertainty
323.15	6.06	.1818
333.15	6.02	.1806
343.15	5.98	.1794

System: ethylbenzene + 1-methyl-3-(propoxymethyl)-1H-imidazolium tetrafluoroborate; phases: Liquid, Gas
Fixed: Mole fraction of ethylbenzene = 0
Property: Activity coefficient of ethylbenzene (Liquid); method: Chromatography
Temperature, K	Activity coefficient of ethylbenzene	uncertainty
323.15	10.96	.3288
333.15	10.82	.3246
343.15	10.68	.3204

System: m-xylene + 1-methyl-3-(propoxymethyl)-1H-imidazolium tetrafluoroborate; phases: Liquid, Gas
Fixed: Mole fraction of m-xylene = 0
Property: Activity coefficient of m-xylene (Liquid); method: Chromatography
Temperature, K	Activity coefficient of m-xylene	uncertainty
323.15	11.01	.3303
333.15	10.8	.324
343.15	10.66	.3198

System: p-xylene + 1-methyl-3-(propoxymethyl)-1H-imidazolium tetrafluoroborate; phases: Liquid, Gas
Fixed: Mole fraction of p-xylene = 0
Property: Activity coefficient of p-xylene (Liquid); method: Chromatography
Temperature, K	Activity coefficient of p-xylene	uncertainty
323.15	10.7	.321
333.15	10.29	.3087
343.15	10.19	.3057

System: o-xylene + 1-methyl-3-(propoxymethyl)-1H-imidazolium tetrafluoroborate; phases: Liquid, Gas
Fixed: Mole fraction of o-xylene = 0
Property: Activity coefficient of o-xylene (Liquid); method: Chromatography
Temperature, K	Activity coefficient of o-xylene	uncertainty
323.15	9.13	.2739
333.15	8.97	.2691
343.15	8.93	.2679

System: 1-hexyne + 1-methyl-3-(propoxymethyl)-1H-imidazolium tetrafluoroborate; phases: Liquid, Gas
Fixed: Mole fraction of 1-hexyne = 0
Property: Activity coefficient of 1-hexyne (Liquid); method: Chromatography
Temperature, K	Activity coefficient of 1-hexyne	uncertainty
323.15	10.26	.3078
333.15	10.07	.3021
343.15	9.44	.2832

System: 1-heptyne + 1-methyl-3-(propoxymethyl)-1H-imidazolium tetrafluoroborate; phases: Liquid, Gas
Fixed: Mole fraction of 1-heptyne = 0
Property: Activity coefficient of 1-heptyne (Liquid); method: Chromatography
Temperature, K	Activity coefficient of 1-heptyne	uncertainty
323.15	16.62	.4986
333.15	16.67	.5001
343.15	16.68	.5004

System: 2-butanone + 1-methyl-3-(propoxymethyl)-1H-imidazolium tetrafluoroborate; phases: Liquid, Gas
Fixed: Mole fraction of 2-butanone = 0
Property: Activity coefficient of 2-butanone (Liquid); method: Chromatography
Temperature, K	Activity coefficient of 2-butanone	uncertainty
323.15	1.73	.0519
333.15	1.6	.048
343.15	1.49	.0447

System: 2-pentanone + 1-methyl-3-(propoxymethyl)-1H-imidazolium tetrafluoroborate; phases: Liquid, Gas
Fixed: Mole fraction of 2-pentanone = 0
Property: Activity coefficient of 2-pentanone (Liquid); method: Chromatography
Temperature, K	Activity coefficient of 2-pentanone	uncertainty
323.15	3.32	.0996
333.15	3.33	.0999
343.15	3.31	.0993

System: 1,4-dioxane + 1-methyl-3-(propoxymethyl)-1H-imidazolium tetrafluoroborate; phases: Liquid, Gas
Fixed: Mole fraction of 1,4-dioxane = 0
Property: Activity coefficient of 1,4-dioxane (Liquid); method: Chromatography
Temperature, K	Activity coefficient of 1,4-dioxane	uncertainty
323.15	1.39	.0417
333.15	1.42	.0426
343.15	1.46	.0438

System: methanol + 1-methyl-3-(propoxymethyl)-1H-imidazolium tetrafluoroborate; phases: Liquid, Gas
Fixed: Mole fraction of methanol = 0
Property: Activity coefficient of methanol (Liquid); method: Chromatography
Temperature, K	Activity coefficient of methanol	uncertainty
323.15	1.29	.0387
333.15	1.2	.036
343.15	1.11	.0333

System: ethanol + 1-methyl-3-(propoxymethyl)-1H-imidazolium tetrafluoroborate; phases: Liquid, Gas
Fixed: Mole fraction of ethanol = 0
Property: Activity coefficient of ethanol (Liquid); method: Chromatography
Temperature, K	Activity coefficient of ethanol	uncertainty
323.15	2.1	.063
333.15	1.9	.057
343.15	1.75	.0525

System: 1-propanol + 1-methyl-3-(propoxymethyl)-1H-imidazolium tetrafluoroborate; phases: Liquid, Gas
Fixed: Mole fraction of 1-propanol = 0
Property: Activity coefficient of 1-propanol (Liquid); method: Chromatography
Temperature, K	Activity coefficient of 1-propanol	uncertainty
323.15	3.1	.093
333.15	2.79	.0837
343.15	2.53	.0759

System: 2-propanol + 1-methyl-3-(propoxymethyl)-1H-imidazolium tetrafluoroborate; phases: Liquid, Gas
Fixed: Mole fraction of 2-propanol = 0
Property: Activity coefficient of 2-propanol (Liquid); method: Chromatography
Temperature, K	Activity coefficient of 2-propanol	uncertainty
323.15	2.91	.0873
333.15	2.7	.081
343.15	2.6	.078

System: 2-methyl-1-propanol + 1-methyl-3-(propoxymethyl)-1H-imidazolium tetrafluoroborate; phases: Liquid, Gas
Fixed: Mole fraction of 2-methyl-1-propanol = 0
Property: Activity coefficient of 2-methyl-1-propanol (Liquid); method: Chromatography
Temperature, K	Activity coefficient of 2-methyl-1-propanol	uncertainty
323.15	4.35	.1305
333.15	3.95	.1185
343.15	3.56	.1068

System: 1-butanol + 1-methyl-3-(propoxymethyl)-1H-imidazolium tetrafluoroborate; phases: Liquid, Gas
Fixed: Mole fraction of 1-butanol = 0
Property: Activity coefficient of 1-butanol (Liquid); method: Chromatography
Temperature, K	Activity coefficient of 1-butanol	uncertainty
323.15	4.61	.1383
333.15	4.17	.1251
343.15	3.76	.1128

System: diethyl ether + 1-methyl-3-(propoxymethyl)-1H-imidazolium tetrafluoroborate; phases: Liquid, Gas
Fixed: Mole fraction of diethyl ether = 0
Property: Activity coefficient of diethyl ether (Liquid); method: Chromatography
Temperature, K	Activity coefficient of diethyl ether	uncertainty
323.15	10.42	.3126
333.15	10.61	.3183

System: diisopropyl ether + 1-methyl-3-(propoxymethyl)-1H-imidazolium tetrafluoroborate; phases: Liquid, Gas
Fixed: Mole fraction of diisopropyl ether = 0
Property: Activity coefficient of diisopropyl ether (Liquid); method: Chromatography
Temperature, K	Activity coefficient of diisopropyl ether	uncertainty
323.15	32.69	.9807
333.15	28.51	.8553
343.15	26.44	.7932

System: chloroform + 1-methyl-3-(propoxymethyl)-1H-imidazolium tetrafluoroborate; phases: Liquid, Gas
Fixed: Mole fraction of chloroform = 0
Property: Activity coefficient of chloroform (Liquid); method: Chromatography
Temperature, K	Activity coefficient of chloroform	uncertainty
323.15	1.74	.0522
333.15	1.8	.054
343.15	1.87	.0561

System: dichloromethane + 1-methyl-3-(propoxymethyl)-1H-imidazolium tetrafluoroborate; phases: Liquid, Gas
Fixed: Mole fraction of dichloromethane = 0
Property: Activity coefficient of dichloromethane (Liquid); method: Chromatography
Temperature, K	Activity coefficient of dichloromethane	uncertainty
323.15	1.07	.0321
333.15	1.16	.0348
343.15	1.19	.0357

System: tetrachloromethane + 1-methyl-3-(propoxymethyl)-1H-imidazolium tetrafluoroborate; phases: Liquid, Gas
Fixed: Mole fraction of tetrachloromethane = 0
Property: Activity coefficient of tetrachloromethane (Liquid); method: Chromatography
Temperature, K	Activity coefficient of tetrachloromethane	uncertainty
323.15	8.91	.2673
333.15	8.58	.2574
343.15	8.19	.2457

System: acetonitrile + 1-methyl-3-(propoxymethyl)-1H-imidazolium tetrafluoroborate; phases: Liquid, Gas
Fixed: Mole fraction of acetonitrile = 0
Property: Activity coefficient of acetonitrile (Liquid); method: Chromatography
Temperature, K	Activity coefficient of acetonitrile	uncertainty
323.15	.73	.0219
333.15	.74	.0222
343.15	.75	.0225

System: nitromethane + 1-methyl-3-(propoxymethyl)-1H-imidazolium tetrafluoroborate; phases: Liquid, Gas
Fixed: Mole fraction of nitromethane = 0
Property: Activity coefficient of nitromethane (Liquid); method: Chromatography
Temperature, K	Activity coefficient of nitromethane	uncertainty
323.15	.65	.0195
333.15	.66	.0198
343.15	.67	.0201

System: 1-nitropropane + 1-methyl-3-(propoxymethyl)-1H-imidazolium tetrafluoroborate; phases: Liquid, Gas
Fixed: Mole fraction of 1-nitropropane = 0
Property: Activity coefficient of 1-nitropropane (Liquid); method: Chromatography
Temperature, K	Activity coefficient of 1-nitropropane	uncertainty
323.15	1.78	.0534
333.15	1.78	.0534
343.15	1.78	.0534

System: thiophene + 1-methyl-3-(propoxymethyl)-1H-imidazolium tetrafluoroborate; phases: Liquid, Gas
Fixed: Mole fraction of thiophene = 0
Property: Activity coefficient of thiophene (Liquid); method: Chromatography
Temperature, K	Activity coefficient of thiophene	uncertainty
323.15	2.26	.0678
333.15	2.27	.0681
343.15	2.27	.0681

System: octane + 1-methyl-3-(propoxymethyl)-1H-imidazolium dicyanamide; phases: Liquid, Gas
Fixed: Mole fraction of octane = 0
Property: Activity coefficient of octane (Liquid); method: Chromatography
Temperature, K	Activity coefficient of octane	uncertainty
323.15	155.46	4.6638
333.15	134.85	4.0455
343.15	111.75	3.3525

System: nonane + 1-methyl-3-(propoxymethyl)-1H-imidazolium dicyanamide; phases: Liquid, Gas
Fixed: Mole fraction of nonane = 0
Property: Activity coefficient of nonane (Liquid); method: Chromatography
Temperature, K	Activity coefficient of nonane	uncertainty
323.15	262.51	7.8753
333.15	234.31	7.0293
343.15	196.57	5.8971

System: decane + 1-methyl-3-(propoxymethyl)-1H-imidazolium dicyanamide; phases: Liquid, Gas
Fixed: Mole fraction of decane = 0
Property: Activity coefficient of decane (Liquid); method: Chromatography
Temperature, K	Activity coefficient of decane	uncertainty
323.15	372.4	11.172
333.15	355.65	10.6695
343.15	286.66	8.5998

System: undecane + 1-methyl-3-(propoxymethyl)-1H-imidazolium dicyanamide; phases: Liquid, Gas
Fixed: Mole fraction of undecane = 0
Property: Activity coefficient of undecane (Liquid); method: Chromatography
Temperature, K	Activity coefficient of undecane	uncertainty
323.15	556.34	16.6902
333.15	504.23	15.1269
343.15	432.24	12.9672

System: dodecane + 1-methyl-3-(propoxymethyl)-1H-imidazolium dicyanamide; phases: Liquid, Gas
Fixed: Mole fraction of dodecane = 0
Property: Activity coefficient of dodecane (Liquid); method: Chromatography
Temperature, K	Activity coefficient of dodecane	uncertainty
323.15	801.81	24.0543
333.15	715.76	21.4728
343.15	639.32	19.1796

System: tridecane + 1-methyl-3-(propoxymethyl)-1H-imidazolium dicyanamide; phases: Liquid, Gas
Fixed: Mole fraction of tridecane = 0
Property: Activity coefficient of tridecane (Liquid); method: Chromatography
Temperature, K	Activity coefficient of tridecane	uncertainty
323.15	1146.6	34.398
333.15	1027.84	30.8352
343.15	915.68	27.4704

System: tetradecane + 1-methyl-3-(propoxymethyl)-1H-imidazolium dicyanamide; phases: Liquid, Gas
Fixed: Mole fraction of tetradecane = 0
Property: Activity coefficient of tetradecane (Liquid); method: Chromatography
Temperature, K	Activity coefficient of tetradecane	uncertainty
323.15	1512.84	45.3852
333.15	1390.43	41.7129
343.15	1262.53	37.8759

System: methylcyclopentane + 1-methyl-3-(propoxymethyl)-1H-imidazolium dicyanamide; phases: Liquid, Gas
Fixed: Mole fraction of methylcyclopentane = 0
Property: Activity coefficient of methylcyclopentane (Liquid); method: Chromatography
Temperature, K	Activity coefficient of methylcyclopentane	uncertainty
323.15	27.71	.8313
333.15	24.38	.7314

System: cyclohexane + 1-methyl-3-(propoxymethyl)-1H-imidazolium dicyanamide; phases: Liquid, Gas
Fixed: Mole fraction of cyclohexane = 0
Property: Activity coefficient of cyclohexane (Liquid); method: Chromatography
Temperature, K	Activity coefficient of cyclohexane	uncertainty
323.15	26.55	.7965
333.15	24.26	.7278
343.15	22.71	.6813

System: methylcyclohexane + 1-methyl-3-(propoxymethyl)-1H-imidazolium dicyanamide; phases: Liquid, Gas
Fixed: Mole fraction of methylcyclohexane = 0
Property: Activity coefficient of methylcyclohexane (Liquid); method: Chromatography
Temperature, K	Activity coefficient of methylcyclohexane	uncertainty
323.15	44.3	1.329
333.15	39.62	1.1886
343.15	35.63	1.0689

System: cycloheptane + 1-methyl-3-(propoxymethyl)-1H-imidazolium dicyanamide; phases: Liquid, Gas
Fixed: Mole fraction of cycloheptane = 0
Property: Activity coefficient of cycloheptane (Liquid); method: Chromatography
Temperature, K	Activity coefficient of cycloheptane	uncertainty
323.15	79.17	2.3751
333.15	104.66	3.1398
343.15	133.16	3.9948

System: benzene + 1-methyl-3-(propoxymethyl)-1H-imidazolium dicyanamide; phases: Liquid, Gas
Fixed: Mole fraction of benzene = 0
Property: Activity coefficient of benzene (Liquid); method: Chromatography
Temperature, K	Activity coefficient of benzene	uncertainty
323.15	2.25	.0675
333.15	2.27	.0681
343.15	2.29	.0687

System: toluene + 1-methyl-3-(propoxymethyl)-1H-imidazolium dicyanamide; phases: Liquid, Gas
Fixed: Mole fraction of toluene = 0
Property: Activity coefficient of toluene (Liquid); method: Chromatography
Temperature, K	Activity coefficient of toluene	uncertainty
323.15	3.6	.108
333.15	3.65	.1095
343.15	3.77	.1131

System: ethylbenzene + 1-methyl-3-(propoxymethyl)-1H-imidazolium dicyanamide; phases: Liquid, Gas
Fixed: Mole fraction of ethylbenzene = 0
Property: Activity coefficient of ethylbenzene (Liquid); method: Chromatography
Temperature, K	Activity coefficient of ethylbenzene	uncertainty
323.15	6	.18
333.15	6.06	.1818
343.15	6.12	.1836

System: m-xylene + 1-methyl-3-(propoxymethyl)-1H-imidazolium dicyanamide; phases: Liquid, Gas
Fixed: Mole fraction of m-xylene = 0
Property: Activity coefficient of m-xylene (Liquid); method: Chromatography
Temperature, K	Activity coefficient of m-xylene	uncertainty
323.15	6.24	.1872
333.15	6.24	.1872
343.15	6.41	.1923

System: p-xylene + 1-methyl-3-(propoxymethyl)-1H-imidazolium dicyanamide; phases: Liquid, Gas
Fixed: Mole fraction of p-xylene = 0
Property: Activity coefficient of p-xylene (Liquid); method: Chromatography
Temperature, K	Activity coefficient of p-xylene	uncertainty
323.15	5.98	.1794
333.15	6.03	.1809
343.15	6.05	.1815

System: o-xylene + 1-methyl-3-(propoxymethyl)-1H-imidazolium dicyanamide; phases: Liquid, Gas
Fixed: Mole fraction of o-xylene = 0
Property: Activity coefficient of o-xylene (Liquid); method: Chromatography
Temperature, K	Activity coefficient of o-xylene	uncertainty
323.15	5.05	.1515
333.15	5.13	.1539
343.15	5.22	.1566

System: 1-hexene + 1-methyl-3-(propoxymethyl)-1H-imidazolium dicyanamide; phases: Liquid, Gas
Fixed: Mole fraction of 1-hexene = 0
Property: Activity coefficient of 1-hexene (Liquid); method: Chromatography
Temperature, K	Activity coefficient of 1-hexene	uncertainty
323.15	28.03	.8409

System: 1-hexyne + 1-methyl-3-(propoxymethyl)-1H-imidazolium dicyanamide; phases: Liquid, Gas
Fixed: Mole fraction of 1-hexyne = 0
Property: Activity coefficient of 1-hexyne (Liquid); method: Chromatography
Temperature, K	Activity coefficient of 1-hexyne	uncertainty
323.15	6.98	.2094
333.15	7.6	.228
343.15	0	0

System: 1-heptyne + 1-methyl-3-(propoxymethyl)-1H-imidazolium dicyanamide; phases: Liquid, Gas
Fixed: Mole fraction of 1-heptyne = 0
Property: Activity coefficient of 1-heptyne (Liquid); method: Chromatography
Temperature, K	Activity coefficient of 1-heptyne	uncertainty
323.15	10.88	.3264
333.15	10.87	.3261
343.15	10.7	.321

System: 2-butanone + 1-methyl-3-(propoxymethyl)-1H-imidazolium dicyanamide; phases: Liquid, Gas
Fixed: Mole fraction of 2-butanone = 0
Property: Activity coefficient of 2-butanone (Liquid); method: Chromatography
Temperature, K	Activity coefficient of 2-butanone	uncertainty
323.15	1.27	.0381
333.15	1.19	.0357
343.15	1.12	.0336

System: 2-pentanone + 1-methyl-3-(propoxymethyl)-1H-imidazolium dicyanamide; phases: Liquid, Gas
Fixed: Mole fraction of 2-pentanone = 0
Property: Activity coefficient of 2-pentanone (Liquid); method: Chromatography
Temperature, K	Activity coefficient of 2-pentanone	uncertainty
323.15	2.24	.0672
333.15	2.27	.0681
343.15	2.32	.0696

System: 1,4-dioxane + 1-methyl-3-(propoxymethyl)-1H-imidazolium dicyanamide; phases: Liquid, Gas
Fixed: Mole fraction of 1,4-dioxane = 0
Property: Activity coefficient of 1,4-dioxane (Liquid); method: Chromatography
Temperature, K	Activity coefficient of 1,4-dioxane	uncertainty
323.15	1.06	.0318
333.15	1.09	.0327
343.15	1.12	.0336

System: methanol + 1-methyl-3-(propoxymethyl)-1H-imidazolium dicyanamide; phases: Liquid, Gas
Fixed: Mole fraction of methanol = 0
Property: Activity coefficient of methanol (Liquid); method: Chromatography
Temperature, K	Activity coefficient of methanol	uncertainty
323.15	.44	.0132
333.15	.44	.0132
343.15	.45	.0135

System: ethanol + 1-methyl-3-(propoxymethyl)-1H-imidazolium dicyanamide; phases: Liquid, Gas
Fixed: Mole fraction of ethanol = 0
Property: Activity coefficient of ethanol (Liquid); method: Chromatography
Temperature, K	Activity coefficient of ethanol	uncertainty
323.15	.74	.0222
333.15	.73	.0219
343.15	.71	.0213

System: 1-propanol + 1-methyl-3-(propoxymethyl)-1H-imidazolium dicyanamide; phases: Liquid, Gas
Fixed: Mole fraction of 1-propanol = 0
Property: Activity coefficient of 1-propanol (Liquid); method: Chromatography
Temperature, K	Activity coefficient of 1-propanol	uncertainty
323.15	.97	.0291
333.15	.95	.0285
343.15	.92	.0276

System: 2-propanol + 1-methyl-3-(propoxymethyl)-1H-imidazolium dicyanamide; phases: Liquid, Gas
Fixed: Mole fraction of 2-propanol = 0
Property: Activity coefficient of 2-propanol (Liquid); method: Chromatography
Temperature, K	Activity coefficient of 2-propanol	uncertainty
323.15	1.1	.033
333.15	1.07	.0321
343.15	1.04	.0312

System: 2-methyl-1-propanol + 1-methyl-3-(propoxymethyl)-1H-imidazolium dicyanamide; phases: Liquid, Gas
Fixed: Mole fraction of 2-methyl-1-propanol = 0
Property: Activity coefficient of 2-methyl-1-propanol (Liquid); method: Chromatography
Temperature, K	Activity coefficient of 2-methyl-1-propanol	uncertainty
323.15	1.29	.0387
333.15	1.25	.0375
343.15	1.21	.0363

System: 1-butanol + 1-methyl-3-(propoxymethyl)-1H-imidazolium dicyanamide; phases: Liquid, Gas
Fixed: Mole fraction of 1-butanol = 0
Property: Activity coefficient of 1-butanol (Liquid); method: Chromatography
Temperature, K	Activity coefficient of 1-butanol	uncertainty
323.15	1.37	.0411
333.15	1.32	.0396
343.15	1.27	.0381

System: chloroform + 1-methyl-3-(propoxymethyl)-1H-imidazolium dicyanamide; phases: Liquid, Gas
Fixed: Mole fraction of chloroform = 0
Property: Activity coefficient of chloroform (Liquid); method: Chromatography
Temperature, K	Activity coefficient of chloroform	uncertainty
323.15	.8	.024
333.15	.85	.0255
343.15	.92	.0276

System: dichloromethane + 1-methyl-3-(propoxymethyl)-1H-imidazolium dicyanamide; phases: Liquid, Gas
Fixed: Mole fraction of dichloromethane = 0
Property: Activity coefficient of dichloromethane (Liquid); method: Chromatography
Temperature, K	Activity coefficient of dichloromethane	uncertainty
323.15	.69	.0207
333.15	.74	.0222
343.15	.78	.0234

System: tetrachloromethane + 1-methyl-3-(propoxymethyl)-1H-imidazolium dicyanamide; phases: Liquid, Gas
Fixed: Mole fraction of tetrachloromethane = 0
Property: Activity coefficient of tetrachloromethane (Liquid); method: Chromatography
Temperature, K	Activity coefficient of tetrachloromethane	uncertainty
323.15	4.04	.1212
333.15	4.08	.1224
343.15	4.39	.1317

System: acetonitrile + 1-methyl-3-(propoxymethyl)-1H-imidazolium dicyanamide; phases: Liquid, Gas
Fixed: Mole fraction of acetonitrile = 0
Property: Activity coefficient of acetonitrile (Liquid); method: Chromatography
Temperature, K	Activity coefficient of acetonitrile	uncertainty
323.15	.77	.0231
333.15	.78	.0234
343.15	1.09	.0327

System: nitromethane + 1-methyl-3-(propoxymethyl)-1H-imidazolium dicyanamide; phases: Liquid, Gas
Fixed: Mole fraction of nitromethane = 0
Property: Activity coefficient of nitromethane (Liquid); method: Chromatography
Temperature, K	Activity coefficient of nitromethane	uncertainty
323.15	.69	.0207
333.15	.7	.021
343.15	.73	.0219

System: 1-nitropropane + 1-methyl-3-(propoxymethyl)-1H-imidazolium dicyanamide; phases: Liquid, Gas
Fixed: Mole fraction of 1-nitropropane = 0
Property: Activity coefficient of 1-nitropropane (Liquid); method: Chromatography
Temperature, K	Activity coefficient of 1-nitropropane	uncertainty
323.15	1.36	.0408
333.15	1.37	.0411
343.15	1.39	.0417

System: triethylamine + 1-methyl-3-(propoxymethyl)-1H-imidazolium dicyanamide; phases: Liquid, Gas
Fixed: Mole fraction of triethylamine = 0
Property: Activity coefficient of triethylamine (Liquid); method: Chromatography
Temperature, K	Activity coefficient of triethylamine	uncertainty
323.15	10.26	.3078
333.15	15.72	.4716
343.15	24.75	.7425

System: pyridine + 1-methyl-3-(propoxymethyl)-1H-imidazolium dicyanamide; phases: Liquid, Gas
Fixed: Mole fraction of pyridine = 0
Property: Activity coefficient of pyridine (Liquid); method: Chromatography
Temperature, K	Activity coefficient of pyridine	uncertainty
323.15	.91	.0273
333.15	.93	.0279
343.15	.97	.0291

System: thiophene + 1-methyl-3-(propoxymethyl)-1H-imidazolium dicyanamide; phases: Liquid, Gas
Fixed: Mole fraction of thiophene = 0
Property: Activity coefficient of thiophene (Liquid); method: Chromatography
Temperature, K	Activity coefficient of thiophene	uncertainty
323.15	1.41	.0423
333.15	1.45	.0435
343.15	1.5	.045

System: 2-methyl-1-octyl-3-(propoxymethyl)-1H-imidazolium bis[(trifluoromethyl)sulfonyl]imide + hexane; phases: Liquid, Gas
Fixed: Mole fraction of hexane = 0
Property: Activity coefficient of hexane (Liquid); method: Chromatography
Temperature, K	Activity coefficient of hexane	uncertainty
323.15	3.82	.1146
333.15	3.74	.1122
343.15	3.12	.0936

System: 2-methyl-1-octyl-3-(propoxymethyl)-1H-imidazolium bis[(trifluoromethyl)sulfonyl]imide + 3-methylpentane; phases: Liquid, Gas
Fixed: Mole fraction of 3-methylpentane = 0
Property: Activity coefficient of 3-methylpentane (Liquid); method: Chromatography
Temperature, K	Activity coefficient of 3-methylpentane	uncertainty
323.15	3.57	.1071
333.15	3.42	.1026
343.15	3.05	.0915

System: 2-methyl-1-octyl-3-(propoxymethyl)-1H-imidazolium bis[(trifluoromethyl)sulfonyl]imide + heptane; phases: Liquid, Gas
Fixed: Mole fraction of heptane = 0
Property: Activity coefficient of heptane (Liquid); method: Chromatography
Temperature, K	Activity coefficient of heptane	uncertainty
323.15	4.64	.1392
333.15	4.56	.1368
343.15	3.98	.1194

System: 2-methyl-1-octyl-3-(propoxymethyl)-1H-imidazolium bis[(trifluoromethyl)sulfonyl]imide + octane; phases: Liquid, Gas
Fixed: Mole fraction of octane = 0
Property: Activity coefficient of octane (Liquid); method: Chromatography
Temperature, K	Activity coefficient of octane	uncertainty
323.15	5.76	.1728
333.15	5.48	.1644
343.15	5.17	.1551

System: 2-methyl-1-octyl-3-(propoxymethyl)-1H-imidazolium bis[(trifluoromethyl)sulfonyl]imide + nonane; phases: Liquid, Gas
Fixed: Mole fraction of nonane = 0
Property: Activity coefficient of nonane (Liquid); method: Chromatography
Temperature, K	Activity coefficient of nonane	uncertainty
323.15	7.93	.2379
333.15	7.42	.2226
343.15	6.93	.2079

System: 2-methyl-1-octyl-3-(propoxymethyl)-1H-imidazolium bis[(trifluoromethyl)sulfonyl]imide + decane; phases: Liquid, Gas
Fixed: Mole fraction of decane = 0
Property: Activity coefficient of decane (Liquid); method: Chromatography
Temperature, K	Activity coefficient of decane	uncertainty
323.15	8.9	.267
333.15	8.47	.2541
343.15	7.92	.2376

System: 2-methyl-1-octyl-3-(propoxymethyl)-1H-imidazolium bis[(trifluoromethyl)sulfonyl]imide + undecane; phases: Liquid, Gas
Fixed: Mole fraction of undecane = 0
Property: Activity coefficient of undecane (Liquid); method: Chromatography
Temperature, K	Activity coefficient of undecane	uncertainty
323.15	11.19	.3357
333.15	10.52	.3156
343.15	9.8	.294

System: 2-methyl-1-octyl-3-(propoxymethyl)-1H-imidazolium bis[(trifluoromethyl)sulfonyl]imide + methylcyclopentane; phases: Liquid, Gas
Fixed: Mole fraction of methylcyclopentane = 0
Property: Activity coefficient of methylcyclopentane (Liquid); method: Chromatography
Temperature, K	Activity coefficient of methylcyclopentane	uncertainty
323.15	2.72	.0816
333.15	2.41	.0723
343.15	2.27	.0681

System: 2-methyl-1-octyl-3-(propoxymethyl)-1H-imidazolium bis[(trifluoromethyl)sulfonyl]imide + methylcyclohexane; phases: Liquid, Gas
Fixed: Mole fraction of methylcyclohexane = 0
Property: Activity coefficient of methylcyclohexane (Liquid); method: Chromatography
Temperature, K	Activity coefficient of methylcyclohexane	uncertainty
323.15	3.09	.0927
333.15	2.91	.0873
343.15	2.8	.084

System: 2-methyl-1-octyl-3-(propoxymethyl)-1H-imidazolium bis[(trifluoromethyl)sulfonyl]imide + cycloheptane; phases: Liquid, Gas
Fixed: Mole fraction of cycloheptane = 0
Property: Activity coefficient of cycloheptane (Liquid); method: Chromatography
Temperature, K	Activity coefficient of cycloheptane	uncertainty
323.15	6.43	.1929
333.15	8.72	.2616
343.15	11.46	.3438

System: 2-methyl-1-octyl-3-(propoxymethyl)-1H-imidazolium bis[(trifluoromethyl)sulfonyl]imide + benzene; phases: Liquid, Gas
Fixed: Mole fraction of benzene = 0
Property: Activity coefficient of benzene (Liquid); method: Chromatography
Temperature, K	Activity coefficient of benzene	uncertainty
323.15	.6	.018
333.15	.59	.0177
343.15	.59	.0177

System: 2-methyl-1-octyl-3-(propoxymethyl)-1H-imidazolium bis[(trifluoromethyl)sulfonyl]imide + toluene; phases: Liquid, Gas
Fixed: Mole fraction of toluene = 0
Property: Activity coefficient of toluene (Liquid); method: Chromatography
Temperature, K	Activity coefficient of toluene	uncertainty
323.15	.76	.0228
333.15	.76	.0228
343.15	.77	.0231

System: 2-methyl-1-octyl-3-(propoxymethyl)-1H-imidazolium bis[(trifluoromethyl)sulfonyl]imide + m-xylene; phases: Liquid, Gas
Fixed: Mole fraction of m-xylene = 0
Property: Activity coefficient of m-xylene (Liquid); method: Chromatography
Temperature, K	Activity coefficient of m-xylene	uncertainty
323.15	1.02	.0306
333.15	1	.03
343.15	1.01	.0303

System: 2-methyl-1-octyl-3-(propoxymethyl)-1H-imidazolium bis[(trifluoromethyl)sulfonyl]imide + ethylbenzene; phases: Liquid, Gas
Fixed: Mole fraction of ethylbenzene = 0
Property: Activity coefficient of ethylbenzene (Liquid); method: Chromatography
Temperature, K	Activity coefficient of ethylbenzene	uncertainty
323.15	1.01	.0303
333.15	1.03	.0309
343.15	1.04	.0312

System: 2-methyl-1-octyl-3-(propoxymethyl)-1H-imidazolium bis[(trifluoromethyl)sulfonyl]imide + p-xylene; phases: Liquid, Gas
Fixed: Mole fraction of p-xylene = 0
Property: Activity coefficient of p-xylene (Liquid); method: Chromatography
Temperature, K	Activity coefficient of p-xylene	uncertainty
323.15	1.02	.0306
333.15	1.01	.0303
343.15	1	.03

System: 2-methyl-1-octyl-3-(propoxymethyl)-1H-imidazolium bis[(trifluoromethyl)sulfonyl]imide + o-xylene; phases: Liquid, Gas
Fixed: Mole fraction of o-xylene = 0
Property: Activity coefficient of o-xylene (Liquid); method: Chromatography
Temperature, K	Activity coefficient of o-xylene	uncertainty
323.15	.94	.0282
333.15	.94	.0282
343.15	.94	.0282

System: 2-methyl-1-octyl-3-(propoxymethyl)-1H-imidazolium bis[(trifluoromethyl)sulfonyl]imide + 1-hexene; phases: Liquid, Gas
Fixed: Mole fraction of 1-hexene = 0
Property: Activity coefficient of 1-hexene (Liquid); method: Chromatography
Temperature, K	Activity coefficient of 1-hexene	uncertainty
323.15	2.65	.0795
333.15	2.38	.0714
343.15	2.47	.0741

System: 2-methyl-1-octyl-3-(propoxymethyl)-1H-imidazolium bis[(trifluoromethyl)sulfonyl]imide + 1-hexyne; phases: Liquid, Gas
Fixed: Mole fraction of 1-hexyne = 0
Property: Activity coefficient of 1-hexyne (Liquid); method: Chromatography
Temperature, K	Activity coefficient of 1-hexyne	uncertainty
323.15	1.39	.0417
333.15	1.36	.0408
343.15	1.34	.0402

System: 2-methyl-1-octyl-3-(propoxymethyl)-1H-imidazolium bis[(trifluoromethyl)sulfonyl]imide + 1-heptyne; phases: Liquid, Gas
Fixed: Mole fraction of 1-heptyne = 0
Property: Activity coefficient of 1-heptyne (Liquid); method: Chromatography
Temperature, K	Activity coefficient of 1-heptyne	uncertainty
323.15	1.68	.0504
333.15	1.64	.0492
343.15	1.62	.0486

System: 2-methyl-1-octyl-3-(propoxymethyl)-1H-imidazolium bis[(trifluoromethyl)sulfonyl]imide + 2-butanone; phases: Liquid, Gas
Fixed: Mole fraction of 2-butanone = 0
Property: Activity coefficient of 2-butanone (Liquid); method: Chromatography
Temperature, K	Activity coefficient of 2-butanone	uncertainty
323.15	.36	.0108
333.15	.33	.0099
343.15	.3	.009

System: 2-methyl-1-octyl-3-(propoxymethyl)-1H-imidazolium bis[(trifluoromethyl)sulfonyl]imide + 2-pentanone; phases: Liquid, Gas
Fixed: Mole fraction of 2-pentanone = 0
Property: Activity coefficient of 2-pentanone (Liquid); method: Chromatography
Temperature, K	Activity coefficient of 2-pentanone	uncertainty
323.15	.48	.0144
333.15	.48	.0144
343.15	.48	.0144

System: 2-methyl-1-octyl-3-(propoxymethyl)-1H-imidazolium bis[(trifluoromethyl)sulfonyl]imide + 1,4-dioxane; phases: Liquid, Gas
Fixed: Mole fraction of 1,4-dioxane = 0
Property: Activity coefficient of 1,4-dioxane (Liquid); method: Chromatography
Temperature, K	Activity coefficient of 1,4-dioxane	uncertainty
323.15	.5	.015
333.15	.49	.0147
343.15	.49	.0147

System: 2-methyl-1-octyl-3-(propoxymethyl)-1H-imidazolium bis[(trifluoromethyl)sulfonyl]imide + methanol; phases: Liquid, Gas
Fixed: Mole fraction of methanol = 0
Property: Activity coefficient of methanol (Liquid); method: Chromatography
Temperature, K	Activity coefficient of methanol	uncertainty
323.15	.98	.0294
333.15	.89	.0267
343.15	.85	.0255

System: 2-methyl-1-octyl-3-(propoxymethyl)-1H-imidazolium bis[(trifluoromethyl)sulfonyl]imide + ethanol; phases: Liquid, Gas
Fixed: Mole fraction of ethanol = 0
Property: Activity coefficient of ethanol (Liquid); method: Chromatography
Temperature, K	Activity coefficient of ethanol	uncertainty
323.15	1.12	.0336
333.15	1.02	.0306
343.15	.94	.0282

System: 2-methyl-1-octyl-3-(propoxymethyl)-1H-imidazolium bis[(trifluoromethyl)sulfonyl]imide + 1-propanol; phases: Liquid, Gas
Fixed: Mole fraction of 1-propanol = 0
Property: Activity coefficient of 1-propanol (Liquid); method: Chromatography
Temperature, K	Activity coefficient of 1-propanol	uncertainty
323.15	1.16	.0348
333.15	1.06	.0318
343.15	.98	.0294

System: 2-methyl-1-octyl-3-(propoxymethyl)-1H-imidazolium bis[(trifluoromethyl)sulfonyl]imide + 2-propanol; phases: Liquid, Gas
Fixed: Mole fraction of 2-propanol = 0
Property: Activity coefficient of 2-propanol (Liquid); method: Chromatography
Temperature, K	Activity coefficient of 2-propanol	uncertainty
323.15	1.16	.0348
333.15	1.05	.0315
343.15	.99	.0297

System: 2-methyl-1-octyl-3-(propoxymethyl)-1H-imidazolium bis[(trifluoromethyl)sulfonyl]imide + 2-methyl-1-propanol; phases: Liquid, Gas
Fixed: Mole fraction of 2-methyl-1-propanol = 0
Property: Activity coefficient of 2-methyl-1-propanol (Liquid); method: Chromatography
Temperature, K	Activity coefficient of 2-methyl-1-propanol	uncertainty
323.15	1.21	.0363
333.15	1.09	.0327
343.15	1.03	.0309

System: 2-methyl-1-octyl-3-(propoxymethyl)-1H-imidazolium bis[(trifluoromethyl)sulfonyl]imide + 1-butanol; phases: Liquid, Gas
Fixed: Mole fraction of 1-butanol = 0
Property: Activity coefficient of 1-butanol (Liquid); method: Chromatography
Temperature, K	Activity coefficient of 1-butanol	uncertainty
323.15	5.47	.1641
333.15	4.33	.1299
343.15	4.28	.1284

System: 2-methyl-1-octyl-3-(propoxymethyl)-1H-imidazolium bis[(trifluoromethyl)sulfonyl]imide + diethyl ether; phases: Liquid, Gas
Fixed: Mole fraction of diethyl ether = 0
Property: Activity coefficient of diethyl ether (Liquid); method: Chromatography
Temperature, K	Activity coefficient of diethyl ether	uncertainty
323.15	1.13	.0339
333.15	1.11	.0333

System: 2-methyl-1-octyl-3-(propoxymethyl)-1H-imidazolium bis[(trifluoromethyl)sulfonyl]imide + diisopropyl ether; phases: Liquid, Gas
Fixed: Mole fraction of diisopropyl ether = 0
Property: Activity coefficient of diisopropyl ether (Liquid); method: Chromatography
Temperature, K	Activity coefficient of diisopropyl ether	uncertainty
323.15	1.95	.0585
333.15	1.86	.0558
343.15	1.82	.0546

System: 2-methyl-1-octyl-3-(propoxymethyl)-1H-imidazolium bis[(trifluoromethyl)sulfonyl]imide + chloroform; phases: Liquid, Gas
Fixed: Mole fraction of chloroform = 0
Property: Activity coefficient of chloroform (Liquid); method: Chromatography
Temperature, K	Activity coefficient of chloroform	uncertainty
323.15	.51	.0153
333.15	.49	.0147
343.15	.53	.0159

System: 2-methyl-1-octyl-3-(propoxymethyl)-1H-imidazolium bis[(trifluoromethyl)sulfonyl]imide + dichloromethane; phases: Liquid, Gas
Fixed: Mole fraction of dichloromethane = 0
Property: Activity coefficient of dichloromethane (Liquid); method: Chromatography
Temperature, K	Activity coefficient of dichloromethane	uncertainty
323.15	.42	.0126
333.15	.43	.0129
343.15	.48	.0144

System: 2-methyl-1-octyl-3-(propoxymethyl)-1H-imidazolium bis[(trifluoromethyl)sulfonyl]imide + tetrachloromethane; phases: Liquid, Gas
Fixed: Mole fraction of tetrachloromethane = 0
Property: Activity coefficient of tetrachloromethane (Liquid); method: Chromatography
Temperature, K	Activity coefficient of tetrachloromethane	uncertainty
323.15	1.21	.0363
333.15	1.19	.0357
343.15	1.24	.0372

System: 2-methyl-1-octyl-3-(propoxymethyl)-1H-imidazolium bis[(trifluoromethyl)sulfonyl]imide + acetonitrile; phases: Liquid, Gas
Fixed: Mole fraction of acetonitrile = 0
Property: Activity coefficient of acetonitrile (Liquid); method: Chromatography
Temperature, K	Activity coefficient of acetonitrile	uncertainty
323.15	.48	.0144
333.15	.46	.0138
343.15	.47	.0141

System: 2-methyl-1-octyl-3-(propoxymethyl)-1H-imidazolium bis[(trifluoromethyl)sulfonyl]imide + nitromethane; phases: Liquid, Gas
Fixed: Mole fraction of nitromethane = 0
Property: Activity coefficient of nitromethane (Liquid); method: Chromatography
Temperature, K	Activity coefficient of nitromethane	uncertainty
323.15	.56	.0168
333.15	.52	.0156
343.15	.52	.0156

System: 2-methyl-1-octyl-3-(propoxymethyl)-1H-imidazolium bis[(trifluoromethyl)sulfonyl]imide + 1-nitropropane; phases: Liquid, Gas
Fixed: Mole fraction of 1-nitropropane = 0
Property: Activity coefficient of 1-nitropropane (Liquid); method: Chromatography
Temperature, K	Activity coefficient of 1-nitropropane	uncertainty
323.15	.54	.0162
333.15	.53	.0159
343.15	.53	.0159

System: 2-methyl-1-octyl-3-(propoxymethyl)-1H-imidazolium bis[(trifluoromethyl)sulfonyl]imide + triethylamine; phases: Liquid, Gas
Fixed: Mole fraction of triethylamine = 0
Property: Activity coefficient of triethylamine (Liquid); method: Chromatography
Temperature, K	Activity coefficient of triethylamine	uncertainty
323.15	1.2	.036

System: 2-methyl-1-octyl-3-(propoxymethyl)-1H-imidazolium bis[(trifluoromethyl)sulfonyl]imide + pyridine; phases: Liquid, Gas
Fixed: Mole fraction of pyridine = 0
Property: Activity coefficient of pyridine (Liquid); method: Chromatography
Temperature, K	Activity coefficient of pyridine	uncertainty
323.15	.35	.0105
333.15	.34	.0102
343.15	.3	.009

System: 2-methyl-1-octyl-3-(propoxymethyl)-1H-imidazolium bis[(trifluoromethyl)sulfonyl]imide + thiophene; phases: Liquid, Gas
Fixed: Mole fraction of thiophene = 0
Property: Activity coefficient of thiophene (Liquid); method: Chromatography
Temperature, K	Activity coefficient of thiophene	uncertainty
323.15	.57	.0171
333.15	.52	.0156
343.15	.56	.0168

System: 1-methyl-3-(propoxymethyl)-1H-imidazolium bis[(trifluoromethyl)sulfonyl]imide + 3-pentanone; phases: Liquid, Gas
Fixed: Mole fraction of 3-pentanone = 0
Property: Activity coefficient of 3-pentanone (Liquid); method: Chromatography
Temperature, K	Activity coefficient of 3-pentanone	uncertainty
323.15	.68	.0204
333.15	.69	.0207
343.15	.72	.0216

System: 3-pentanone + 1-methyl-3-(propoxymethyl)-1H-imidazolium tetrafluoroborate; phases: Liquid, Gas
Fixed: Mole fraction of 3-pentanone = 0
Property: Activity coefficient of 3-pentanone (Liquid); method: Chromatography
Temperature, K	Activity coefficient of 3-pentanone	uncertainty
323.15	3.34	.1002
333.15	3.36	.1008
343.15	3.41	.1023

System: 3-pentanone + 1-methyl-3-(propoxymethyl)-1H-imidazolium dicyanamide; phases: Liquid, Gas
Fixed: Mole fraction of 3-pentanone = 0
Property: Activity coefficient of 3-pentanone (Liquid); method: Chromatography
Temperature, K	Activity coefficient of 3-pentanone	uncertainty
323.15	2.14	.0642
333.15	2.19	.0657
343.15	2.29	.0687

System: 2-methyl-1-octyl-3-(propoxymethyl)-1H-imidazolium bis[(trifluoromethyl)sulfonyl]imide + 3-pentanone; phases: Liquid, Gas
Fixed: Mole fraction of 3-pentanone = 0
Property: Activity coefficient of 3-pentanone (Liquid); method: Chromatography
Temperature, K	Activity coefficient of 3-pentanone	uncertainty
323.15	.45	.0135
333.15	.45	.0135
343.15	.47	.0141

System: 2-methyl-1-octyl-3-(propoxymethyl)-1H-imidazolium dicyanamide + hexane; phases: Liquid, Gas
Fixed: Mole fraction of hexane = 0
Property: Activity coefficient of hexane (Liquid); method: Chromatography
Temperature, K	Activity coefficient of hexane	uncertainty
323.15	7.08	.2124
333.15	6.92	.2076
343.15	6.8	.204

System: 2-methyl-1-octyl-3-(propoxymethyl)-1H-imidazolium dicyanamide + 3-methylpentane; phases: Liquid, Gas
Fixed: Mole fraction of 3-methylpentane = 0
Property: Activity coefficient of 3-methylpentane (Liquid); method: Chromatography
Temperature, K	Activity coefficient of 3-methylpentane	uncertainty
323.15	6.65	.1995
333.15	5.7	.171
343.15	6.25	.1875

System: 2-methyl-1-octyl-3-(propoxymethyl)-1H-imidazolium dicyanamide + heptane; phases: Liquid, Gas
Fixed: Mole fraction of heptane = 0
Property: Activity coefficient of heptane (Liquid); method: Chromatography
Temperature, K	Activity coefficient of heptane	uncertainty
323.15	8.88	.2664
333.15	8.18	.2454
343.15	7.95	.2385

System: 2-methyl-1-octyl-3-(propoxymethyl)-1H-imidazolium dicyanamide + octane; phases: Liquid, Gas
Fixed: Mole fraction of octane = 0
Property: Activity coefficient of octane (Liquid); method: Chromatography
Temperature, K	Activity coefficient of octane	uncertainty
323.15	11	.33
333.15	10.12	.3036
343.15	9.94	.2982

System: 2-methyl-1-octyl-3-(propoxymethyl)-1H-imidazolium dicyanamide + nonane; phases: Liquid, Gas
Fixed: Mole fraction of nonane = 0
Property: Activity coefficient of nonane (Liquid); method: Chromatography
Temperature, K	Activity coefficient of nonane	uncertainty
323.15	14.93	.4479
333.15	13.59	.4077
343.15	13.12	.3936

System: 2-methyl-1-octyl-3-(propoxymethyl)-1H-imidazolium dicyanamide + decane; phases: Liquid, Gas
Fixed: Mole fraction of decane = 0
Property: Activity coefficient of decane (Liquid); method: Chromatography
Temperature, K	Activity coefficient of decane	uncertainty
323.15	17.01	.5103
333.15	15.48	.4644
343.15	14.89	.4467

System: 2-methyl-1-octyl-3-(propoxymethyl)-1H-imidazolium dicyanamide + undecane; phases: Liquid, Gas
Fixed: Mole fraction of undecane = 0
Property: Activity coefficient of undecane (Liquid); method: Chromatography
Temperature, K	Activity coefficient of undecane	uncertainty
323.15	20.61	.6183
333.15	19.57	.5871
343.15	18.16	.5448

System: 2-methyl-1-octyl-3-(propoxymethyl)-1H-imidazolium dicyanamide + cyclohexane; phases: Liquid, Gas
Fixed: Mole fraction of cyclohexane = 0
Property: Activity coefficient of cyclohexane (Liquid); method: Chromatography
Temperature, K	Activity coefficient of cyclohexane	uncertainty
323.15	4.06	.1218
333.15	3.85	.1155
343.15	3.82	.1146

System: 2-methyl-1-octyl-3-(propoxymethyl)-1H-imidazolium dicyanamide + methylcyclohexane; phases: Liquid, Glass
Fixed: Mole fraction of methylcyclohexane = 0
Property: Activity coefficient of methylcyclohexane (Liquid); method: Chromatography
Temperature, K	Activity coefficient of methylcyclohexane	uncertainty
323.15	5.11	.1533
333.15	4.86	.1458
343.15	4.81	.1443

System: 2-methyl-1-octyl-3-(propoxymethyl)-1H-imidazolium dicyanamide + cycloheptane; phases: Liquid, Gas
Fixed: Mole fraction of cycloheptane = 0
Property: Activity coefficient of cycloheptane (Liquid); method: Chromatography
Temperature, K	Activity coefficient of cycloheptane	uncertainty
323.15	15.65	.4695

System: 2-methyl-1-octyl-3-(propoxymethyl)-1H-imidazolium dicyanamide + benzene; phases: Liquid, Gas
Fixed: Mole fraction of benzene = 0
Property: Activity coefficient of benzene (Liquid); method: Chromatography
Temperature, K	Activity coefficient of benzene	uncertainty
323.15	1.39	.0417
333.15	1.23	.0369
343.15	1.07	.0321

System: 2-methyl-1-octyl-3-(propoxymethyl)-1H-imidazolium dicyanamide + toluene; phases: Liquid, Gas
Fixed: Mole fraction of toluene = 0
Property: Activity coefficient of toluene (Liquid); method: Chromatography
Temperature, K	Activity coefficient of toluene	uncertainty
323.15	1.43	.0429
333.15	1.22	.0366
343.15	1.15	.0345

System: 2-methyl-1-octyl-3-(propoxymethyl)-1H-imidazolium dicyanamide + ethylbenzene; phases: Liquid, Gas
Fixed: Mole fraction of ethylbenzene = 0
Property: Activity coefficient of ethylbenzene (Liquid); method: Chromatography
Temperature, K	Activity coefficient of ethylbenzene	uncertainty
323.15	1.48	.0444
333.15	1.5	.045
343.15	1.54	.0462

System: 2-methyl-1-octyl-3-(propoxymethyl)-1H-imidazolium dicyanamide + m-xylene; phases: Liquid, Gas
Fixed: Mole fraction of m-xylene = 0
Property: Activity coefficient of m-xylene (Liquid); method: Chromatography
Temperature, K	Activity coefficient of m-xylene	uncertainty
323.15	1.54	.0462
333.15	1.54	.0462
343.15	1.57	.0471

System: 2-methyl-1-octyl-3-(propoxymethyl)-1H-imidazolium dicyanamide + p-xylene; phases: Liquid, Gas
Fixed: Mole fraction of p-xylene = 0
Property: Activity coefficient of p-xylene (Liquid); method: Chromatography
Temperature, K	Activity coefficient of p-xylene	uncertainty
323.15	1.51	.0453
333.15	1.52	.0456
343.15	1.56	.0468

System: 2-methyl-1-octyl-3-(propoxymethyl)-1H-imidazolium dicyanamide + o-xylene; phases: Liquid, Gas
Fixed: Mole fraction of o-xylene = 0
Property: Activity coefficient of o-xylene (Liquid); method: Chromatography
Temperature, K	Activity coefficient of o-xylene	uncertainty
323.15	1.33	.0399
333.15	1.33	.0399
343.15	1.33	.0399

System: 2-methyl-1-octyl-3-(propoxymethyl)-1H-imidazolium dicyanamide + 1-hexyne; phases: Liquid, Gas
Fixed: Mole fraction of 1-hexyne = 0
Property: Activity coefficient of 1-hexyne (Liquid); method: Chromatography
Temperature, K	Activity coefficient of 1-hexyne	uncertainty
323.15	1.73	.0519
333.15	2.14	.0642
343.15	2.01	.0603

System: 2-methyl-1-octyl-3-(propoxymethyl)-1H-imidazolium dicyanamide + 2-butanone; phases: Liquid, Gas
Fixed: Mole fraction of 2-butanone = 0
Property: Activity coefficient of 2-butanone (Liquid); method: Chromatography
Temperature, K	Activity coefficient of 2-butanone	uncertainty
323.15	.7	.021
333.15	.64	.0192
343.15	.55	.0165

System: 2-methyl-1-octyl-3-(propoxymethyl)-1H-imidazolium dicyanamide + 2-pentanone; phases: Liquid, Gas
Fixed: Mole fraction of 2-pentanone = 0
Property: Activity coefficient of 2-pentanone (Liquid); method: Chromatography
Temperature, K	Activity coefficient of 2-pentanone	uncertainty
323.15	.95	.0285
333.15	.96	.0288
343.15	.98	.0294

System: 2-methyl-1-octyl-3-(propoxymethyl)-1H-imidazolium dicyanamide + 1,4-dioxane; phases: Liquid, Gas
Fixed: Mole fraction of 1,4-dioxane = 0
Property: Activity coefficient of 1,4-dioxane (Liquid); method: Chromatography
Temperature, K	Activity coefficient of 1,4-dioxane	uncertainty
323.15	.77	.0231
333.15	.78	.0234
343.15	.78	.0234

System: 2-methyl-1-octyl-3-(propoxymethyl)-1H-imidazolium dicyanamide + methanol; phases: Liquid, Gas
Fixed: Mole fraction of methanol = 0
Property: Activity coefficient of methanol (Liquid); method: Chromatography
Temperature, K	Activity coefficient of methanol	uncertainty
323.15	.32	.0096
333.15	.29	.0087
343.15	.28	.0084

System: 2-methyl-1-octyl-3-(propoxymethyl)-1H-imidazolium dicyanamide + ethanol; phases: Liquid, Gas
Fixed: Mole fraction of ethanol = 0
Property: Activity coefficient of ethanol (Liquid); method: Chromatography
Temperature, K	Activity coefficient of ethanol	uncertainty
323.15	.39	.0117
333.15	.38	.0114
343.15	.38	.0114

System: 2-methyl-1-octyl-3-(propoxymethyl)-1H-imidazolium dicyanamide + 1-propanol; phases: Liquid, Gas
Fixed: Mole fraction of 1-propanol = 0
Property: Activity coefficient of 1-propanol (Liquid); method: Chromatography
Temperature, K	Activity coefficient of 1-propanol	uncertainty
323.15	.4	.012
333.15	.4	.012
343.15	.39	.0117

System: 2-methyl-1-octyl-3-(propoxymethyl)-1H-imidazolium dicyanamide + diisopropyl ether; phases: Liquid, Gas
Fixed: Mole fraction of diisopropyl ether = 0
Property: Activity coefficient of diisopropyl ether (Liquid); method: Chromatography
Temperature, K	Activity coefficient of diisopropyl ether	uncertainty
323.15	4.17	.1251
333.15	4.05	.1215

System: 2-methyl-1-octyl-3-(propoxymethyl)-1H-imidazolium dicyanamide + chloroform; phases: Liquid, Gas
Fixed: Mole fraction of chloroform = 0
Property: Activity coefficient of chloroform (Liquid); method: Chromatography
Temperature, K	Activity coefficient of chloroform	uncertainty
323.15	.27	.0081
333.15	.3	.009
343.15	.33	.0099

System: 2-methyl-1-octyl-3-(propoxymethyl)-1H-imidazolium dicyanamide + dichloromethane; phases: Liquid, Gas
Fixed: Mole fraction of dichloromethane = 0
Property: Activity coefficient of dichloromethane (Liquid); method: Chromatography
Temperature, K	Activity coefficient of dichloromethane	uncertainty
323.15	.34	.0102
333.15	.37	.0111
343.15	.37	.0111

System: 2-methyl-1-octyl-3-(propoxymethyl)-1H-imidazolium dicyanamide + tetrachloromethane; phases: Liquid, Gas
Fixed: Mole fraction of tetrachloromethane = 0
Property: Activity coefficient of tetrachloromethane (Liquid); method: Chromatography
Temperature, K	Activity coefficient of tetrachloromethane	uncertainty
323.15	1.21	.0363
333.15	1.23	.0369
343.15	1.24	.0372

System: 2-methyl-1-octyl-3-(propoxymethyl)-1H-imidazolium dicyanamide + acetonitrile; phases: Liquid, Gas
Fixed: Mole fraction of acetonitrile = 0
Property: Activity coefficient of acetonitrile (Liquid); method: Chromatography
Temperature, K	Activity coefficient of acetonitrile	uncertainty
323.15	.72	.0216
333.15	.7	.021
343.15	.69	.0207

System: 2-methyl-1-octyl-3-(propoxymethyl)-1H-imidazolium dicyanamide + nitromethane; phases: Liquid, Gas
Fixed: Mole fraction of nitromethane = 0
Property: Activity coefficient of nitromethane (Liquid); method: Chromatography
Temperature, K	Activity coefficient of nitromethane	uncertainty
323.15	.68	.0204
333.15	.66	.0198
343.15	.63	.0189

System: 2-methyl-1-octyl-3-(propoxymethyl)-1H-imidazolium dicyanamide + 1-nitropropane; phases: Liquid, Gas
Fixed: Mole fraction of 1-nitropropane = 0
Property: Activity coefficient of 1-nitropropane (Liquid); method: Chromatography
Temperature, K	Activity coefficient of 1-nitropropane	uncertainty
323.15	.76	.0228
333.15	.75	.0225
343.15	.75	.0225

System: 2-methyl-1-octyl-3-(propoxymethyl)-1H-imidazolium dicyanamide + thiophene; phases: Liquid, Gas
Fixed: Mole fraction of thiophene = 0
Property: Activity coefficient of thiophene (Liquid); method: Chromatography
Temperature, K	Activity coefficient of thiophene	uncertainty
323.15	.66	.0198
333.15	.66	.0198
343.15	.64	.0192

System: 2-methyl-1-octyl-3-(propoxymethyl)-1H-imidazolium dicyanamide + methylcyclopentane; phases: Liquid, Gas
Fixed: Mole fraction of methylcyclopentane = 0
Property: Activity coefficient of methylcyclopentane (Liquid); method: Chromatography
Temperature, K	Activity coefficient of methylcyclopentane	uncertainty
323.15	4.37	.1311
333.15	4.16	.1248
343.15	4.16	.1248

System: 2-methyl-1-octyl-3-(propoxymethyl)-1H-imidazolium dicyanamide + 1-hexene; phases: Liquid, Gas
Fixed: Mole fraction of 1-hexene = 0
Property: Activity coefficient of 1-hexene (Liquid); method: Chromatography
Temperature, K	Activity coefficient of 1-hexene	uncertainty
323.15	4.34	.1302
333.15	4.37	.1311
343.15	3.94	.1182

System: 2-methyl-1-octyl-3-(propoxymethyl)-1H-imidazolium dicyanamide + 1-heptyne; phases: Liquid, Gas
Fixed: Mole fraction of 1-heptyne = 0
Property: Activity coefficient of 1-heptyne (Liquid); method: Chromatography
Temperature, K	Activity coefficient of 1-heptyne	uncertainty
323.15	2.11	.0633
333.15	2.09	.0627

System: 2-methyl-1-octyl-3-(propoxymethyl)-1H-imidazolium dicyanamide + 3-pentanone; phases: Liquid, Gas
Fixed: Mole fraction of 3-pentanone = 0
Property: Activity coefficient of 3-pentanone (Liquid); method: Chromatography
Temperature, K	Activity coefficient of 3-pentanone	uncertainty
323.15	.88	.0264
333.15	.89	.0267
343.15	.91	.0273

System: 2-methyl-1-octyl-3-(propoxymethyl)-1H-imidazolium dicyanamide + pyridine; phases: Liquid, Gas
Fixed: Mole fraction of pyridine = 0
Property: Activity coefficient of pyridine (Liquid); method: Chromatography
Temperature, K	Activity coefficient of pyridine	uncertainty
323.15	.66	.0198
333.15	.59	.0177
343.15	.54	.0162

System: 1-benzyl-3-(propoxymethyl)-1H-imidazolium bis[(trifluoromethyl)sulfonyl]imide + hexane; phases: Liquid, Gas
Fixed: Mole fraction of hexane = 0
Property: Activity coefficient of hexane (Liquid); method: Chromatography
Temperature, K	Activity coefficient of hexane	uncertainty
323.15	7.52	.2256
333.15	7.21	.2163
343.15	6.92	.2076

System: 1-benzyl-3-(propoxymethyl)-1H-imidazolium bis[(trifluoromethyl)sulfonyl]imide + 3-methylpentane; phases: Liquid, Gas
Fixed: Mole fraction of 3-methylpentane = 0
Property: Activity coefficient of 3-methylpentane (Liquid); method: Chromatography
Temperature, K	Activity coefficient of 3-methylpentane	uncertainty
323.15	8.01	.2403
333.15	6.59	.1977
343.15	5.91	.1773

System: 1-benzyl-3-(propoxymethyl)-1H-imidazolium bis[(trifluoromethyl)sulfonyl]imide + heptane; phases: Liquid, Gas
Fixed: Mole fraction of heptane = 0
Property: Activity coefficient of heptane (Liquid); method: Chromatography
Temperature, K	Activity coefficient of heptane	uncertainty
323.15	11.99	.3597
333.15	10.13	.3039
343.15	9.58	.2874

System: 1-benzyl-3-(propoxymethyl)-1H-imidazolium bis[(trifluoromethyl)sulfonyl]imide + octane; phases: Liquid, Gas
Fixed: Mole fraction of octane = 0
Property: Activity coefficient of octane (Liquid); method: Chromatography
Temperature, K	Activity coefficient of octane	uncertainty
323.15	16.06	.4818
333.15	12.88	.3864
343.15	12.47	.3741

System: 1-benzyl-3-(propoxymethyl)-1H-imidazolium bis[(trifluoromethyl)sulfonyl]imide + nonane; phases: Liquid, Gas
Fixed: Mole fraction of nonane = 0
Property: Activity coefficient of nonane (Liquid); method: Chromatography
Temperature, K	Activity coefficient of nonane	uncertainty
323.15	23.28	.6984
333.15	19.14	.5742
343.15	17.52	.5256

System: 1-benzyl-3-(propoxymethyl)-1H-imidazolium bis[(trifluoromethyl)sulfonyl]imide + decane; phases: Liquid, Gas
Fixed: Mole fraction of decane = 0
Property: Activity coefficient of decane (Liquid); method: Chromatography
Temperature, K	Activity coefficient of decane	uncertainty
323.15	28.84	.8652
333.15	23.16	.6948
343.15	21.11	.6333

System: 1-benzyl-3-(propoxymethyl)-1H-imidazolium bis[(trifluoromethyl)sulfonyl]imide + undecane; phases: Liquid, Gas
Fixed: Mole fraction of undecane = 0
Property: Activity coefficient of undecane (Liquid); method: Chromatography
Temperature, K	Activity coefficient of undecane	uncertainty
323.15	41.65	1.2495
333.15	31	.93
343.15	27.69	.8307

System: 1-benzyl-3-(propoxymethyl)-1H-imidazolium bis[(trifluoromethyl)sulfonyl]imide + methylcyclopentane; phases: Liquid, Gas
Fixed: Mole fraction of methylcyclopentane = 0
Property: Activity coefficient of methylcyclopentane (Liquid); method: Chromatography
Temperature, K	Activity coefficient of methylcyclopentane	uncertainty
323.15	5.48	.1644
333.15	4.46	.1338
343.15	4.02	.1206

System: 1-benzyl-3-(propoxymethyl)-1H-imidazolium bis[(trifluoromethyl)sulfonyl]imide + cyclohexane; phases: Liquid, Gas
Fixed: Mole fraction of cyclohexane = 0
Property: Activity coefficient of cyclohexane (Liquid); method: Chromatography
Temperature, K	Activity coefficient of cyclohexane	uncertainty
323.15	4.98	.1494
333.15	4.29	.1287
343.15	3.99	.1197

System: 1-benzyl-3-(propoxymethyl)-1H-imidazolium bis[(trifluoromethyl)sulfonyl]imide + methylcyclohexane; phases: Liquid, Glass
Fixed: Mole fraction of methylcyclohexane = 0
Property: Activity coefficient of methylcyclohexane (Liquid); method: Chromatography
Temperature, K	Activity coefficient of methylcyclohexane	uncertainty
323.15	6.47	.1941
333.15	6.14	.1842
343.15	5.7	.171

System: 1-benzyl-3-(propoxymethyl)-1H-imidazolium bis[(trifluoromethyl)sulfonyl]imide + cycloheptane; phases: Liquid, Gas
Fixed: Mole fraction of cycloheptane = 0
Property: Activity coefficient of cycloheptane (Liquid); method: Chromatography
Temperature, K	Activity coefficient of cycloheptane	uncertainty
323.15	13.36	.4008
333.15	15.78	.4734
343.15	20.53	.6159

System: 1-benzyl-3-(propoxymethyl)-1H-imidazolium bis[(trifluoromethyl)sulfonyl]imide + benzene; phases: Liquid, Gas
Fixed: Mole fraction of benzene = 0
Property: Activity coefficient of benzene (Liquid); method: Chromatography
Temperature, K	Activity coefficient of benzene	uncertainty
323.15	.81	.0243
333.15	.71	.0213
343.15	.71	.0213

System: 1-benzyl-3-(propoxymethyl)-1H-imidazolium bis[(trifluoromethyl)sulfonyl]imide + toluene; phases: Liquid, Gas
Fixed: Mole fraction of toluene = 0
Property: Activity coefficient of toluene (Liquid); method: Chromatography
Temperature, K	Activity coefficient of toluene	uncertainty
323.15	1.09	.0327
333.15	.97	.0291
343.15	.96	.0288

System: 1-benzyl-3-(propoxymethyl)-1H-imidazolium bis[(trifluoromethyl)sulfonyl]imide + ethylbenzene; phases: Liquid, Gas
Fixed: Mole fraction of ethylbenzene = 0
Property: Activity coefficient of ethylbenzene (Liquid); method: Chromatography
Temperature, K	Activity coefficient of ethylbenzene	uncertainty
323.15	1.5	.045
333.15	1.33	.0399
343.15	1.32	.0396

System: 1-benzyl-3-(propoxymethyl)-1H-imidazolium bis[(trifluoromethyl)sulfonyl]imide + m-xylene; phases: Liquid, Gas
Fixed: Mole fraction of m-xylene = 0
Property: Activity coefficient of m-xylene (Liquid); method: Chromatography
Temperature, K	Activity coefficient of m-xylene	uncertainty
323.15	1.55	.0465
333.15	1.37	.0411
343.15	1.35	.0405

System: 1-benzyl-3-(propoxymethyl)-1H-imidazolium bis[(trifluoromethyl)sulfonyl]imide + p-xylene; phases: Liquid, Gas
Fixed: Mole fraction of p-xylene = 0
Property: Activity coefficient of p-xylene (Liquid); method: Chromatography
Temperature, K	Activity coefficient of p-xylene	uncertainty
323.15	1.56	.0468
333.15	1.37	.0411
343.15	1.34	.0402

System: 1-benzyl-3-(propoxymethyl)-1H-imidazolium bis[(trifluoromethyl)sulfonyl]imide + o-xylene; phases: Liquid, Gas
Fixed: Mole fraction of o-xylene = 0
Property: Activity coefficient of o-xylene (Liquid); method: Chromatography
Temperature, K	Activity coefficient of o-xylene	uncertainty
323.15	1.58	.0474
333.15	1.23	.0369
343.15	1.22	.0366

System: 1-benzyl-3-(propoxymethyl)-1H-imidazolium bis[(trifluoromethyl)sulfonyl]imide + 1-hexene; phases: Liquid, Gas
Fixed: Mole fraction of 1-hexene = 0
Property: Activity coefficient of 1-hexene (Liquid); method: Chromatography
Temperature, K	Activity coefficient of 1-hexene	uncertainty
323.15	5.09	.1527
333.15	4.32	.1296
343.15	4.05	.1215

System: 1-benzyl-3-(propoxymethyl)-1H-imidazolium bis[(trifluoromethyl)sulfonyl]imide + 1-hexyne; phases: Liquid, Gas
Fixed: Mole fraction of 1-hexyne = 0
Property: Activity coefficient of 1-hexyne (Liquid); method: Chromatography
Temperature, K	Activity coefficient of 1-hexyne	uncertainty
323.15	2.14	.0642
333.15	2.35	.0705

System: 1-benzyl-3-(propoxymethyl)-1H-imidazolium bis[(trifluoromethyl)sulfonyl]imide + 1-heptyne; phases: Liquid, Gas
Fixed: Mole fraction of 1-heptyne = 0
Property: Activity coefficient of 1-heptyne (Liquid); method: Chromatography
Temperature, K	Activity coefficient of 1-heptyne	uncertainty
323.15	2.82	.0846
333.15	2.42	.0726
343.15	2.25	.0675

System: 1-benzyl-3-(propoxymethyl)-1H-imidazolium bis[(trifluoromethyl)sulfonyl]imide + 2-butanone; phases: Liquid, Gas
Fixed: Mole fraction of 2-butanone = 0
Property: Activity coefficient of 2-butanone (Liquid); method: Chromatography
Temperature, K	Activity coefficient of 2-butanone	uncertainty
323.15	.32	.0096
333.15	.26	.0078
343.15	.22	.0066

System: 1-benzyl-3-(propoxymethyl)-1H-imidazolium bis[(trifluoromethyl)sulfonyl]imide + 2-pentanone; phases: Liquid, Gas
Fixed: Mole fraction of 2-pentanone = 0
Property: Activity coefficient of 2-pentanone (Liquid); method: Chromatography
Temperature, K	Activity coefficient of 2-pentanone	uncertainty
323.15	.46	.0138
333.15	.42	.0126
343.15	.4	.012

System: 1-benzyl-3-(propoxymethyl)-1H-imidazolium bis[(trifluoromethyl)sulfonyl]imide + 3-pentanone; phases: Liquid, Gas
Fixed: Mole fraction of 3-pentanone = 0
Property: Activity coefficient of 3-pentanone (Liquid); method: Chromatography
Temperature, K	Activity coefficient of 3-pentanone	uncertainty
323.15	.43	.0129
333.15	.43	.0129
343.15	.44	.0132

System: 1-benzyl-3-(propoxymethyl)-1H-imidazolium bis[(trifluoromethyl)sulfonyl]imide + 1,4-dioxane; phases: Liquid, Gas
Fixed: Mole fraction of 1,4-dioxane = 0
Property: Activity coefficient of 1,4-dioxane (Liquid); method: Chromatography
Temperature, K	Activity coefficient of 1,4-dioxane	uncertainty
323.15	.4	.012
333.15	.36	.0108
343.15	.35	.0105

System: 1-benzyl-3-(propoxymethyl)-1H-imidazolium bis[(trifluoromethyl)sulfonyl]imide + diisopropyl ether; phases: Liquid, Gas
Fixed: Mole fraction of diisopropyl ether = 0
Property: Activity coefficient of diisopropyl ether (Liquid); method: Chromatography
Temperature, K	Activity coefficient of diisopropyl ether	uncertainty
323.15	3	.09
333.15	2.87	.0861
343.15	2.74	.0822

System: 1-benzyl-3-(propoxymethyl)-1H-imidazolium bis[(trifluoromethyl)sulfonyl]imide + chloroform; phases: Liquid, Gas
Fixed: Mole fraction of chloroform = 0
Property: Activity coefficient of chloroform (Liquid); method: Chromatography
Temperature, K	Activity coefficient of chloroform	uncertainty
323.15	.73	.0219
333.15	.65	.0195
343.15	.66	.0198

System: 1-benzyl-3-(propoxymethyl)-1H-imidazolium bis[(trifluoromethyl)sulfonyl]imide + dichloromethane; phases: Liquid, Gas
Fixed: Mole fraction of dichloromethane = 0
Property: Activity coefficient of dichloromethane (Liquid); method: Chromatography
Temperature, K	Activity coefficient of dichloromethane	uncertainty
323.15	.52	.0156
333.15	.44	.0132
343.15	.37	.0111

System: 1-benzyl-3-(propoxymethyl)-1H-imidazolium bis[(trifluoromethyl)sulfonyl]imide + tetrachloromethane; phases: Liquid, Gas
Fixed: Mole fraction of tetrachloromethane = 0
Property: Activity coefficient of tetrachloromethane (Liquid); method: Chromatography
Temperature, K	Activity coefficient of tetrachloromethane	uncertainty
323.15	1.87	.0561
333.15	1.83	.0549
343.15	1.81	.0543

System: 1-benzyl-3-(propoxymethyl)-1H-imidazolium bis[(trifluoromethyl)sulfonyl]imide + acetonitrile; phases: Liquid, Gas
Fixed: Mole fraction of acetonitrile = 0
Property: Activity coefficient of acetonitrile (Liquid); method: Chromatography
Temperature, K	Activity coefficient of acetonitrile	uncertainty
323.15	.39	.0117
333.15	.34	.0102
343.15	.34	.0102

System: 1-benzyl-3-(propoxymethyl)-1H-imidazolium bis[(trifluoromethyl)sulfonyl]imide + nitromethane; phases: Liquid, Gas
Fixed: Mole fraction of nitromethane = 0
Property: Activity coefficient of nitromethane (Liquid); method: Chromatography
Temperature, K	Activity coefficient of nitromethane	uncertainty
323.15	.46	.0138
333.15	.4	.012
343.15	.4	.012

System: 1-benzyl-3-(propoxymethyl)-1H-imidazolium bis[(trifluoromethyl)sulfonyl]imide + 1-nitropropane; phases: Liquid, Gas
Fixed: Mole fraction of 1-nitropropane = 0
Property: Activity coefficient of 1-nitropropane (Liquid); method: Chromatography
Temperature, K	Activity coefficient of 1-nitropropane	uncertainty
323.15	.53	.0159
333.15	.46	.0138
343.15	.47	.0141

System: 1-benzyl-3-(propoxymethyl)-1H-imidazolium bis[(trifluoromethyl)sulfonyl]imide + thiophene; phases: Liquid, Gas
Fixed: Mole fraction of thiophene = 0
Property: Activity coefficient of thiophene (Liquid); method: Chromatography
Temperature, K	Activity coefficient of thiophene	uncertainty
323.15	.7	.021
333.15	.62	.0186
343.15	.62	.0186

System: 1-benzyl-3-(propoxymethyl)-1H-imidazolium tetrafluoroborate + nonane; phases: Liquid, Gas
Fixed: Mole fraction of nonane = 0
Property: Activity coefficient of nonane (Liquid); method: Chromatography
Temperature, K	Activity coefficient of nonane	uncertainty
323.15	178.69	5.3607
333.15	163.9	4.917
343.15	125.94	3.7782

System: 1-benzyl-3-(propoxymethyl)-1H-imidazolium tetrafluoroborate + decane; phases: Liquid, Gas
Fixed: Mole fraction of decane = 0
Property: Activity coefficient of decane (Liquid); method: Chromatography
Temperature, K	Activity coefficient of decane	uncertainty
323.15	243.66	7.3098
333.15	220.25	6.6075
343.15	178.17	5.3451

System: 1-benzyl-3-(propoxymethyl)-1H-imidazolium tetrafluoroborate + undecane; phases: Liquid, Gas
Fixed: Mole fraction of undecane = 0
Property: Activity coefficient of undecane (Liquid); method: Chromatography
Temperature, K	Activity coefficient of undecane	uncertainty
323.15	352.28	10.5684
333.15	301.34	9.0402
343.15	285.57	8.5671

System: 1-benzyl-3-(propoxymethyl)-1H-imidazolium tetrafluoroborate + dodecane; phases: Liquid, Gas
Fixed: Mole fraction of dodecane = 0
Property: Activity coefficient of dodecane (Liquid); method: Chromatography
Temperature, K	Activity coefficient of dodecane	uncertainty
323.15	482.64	14.4792
333.15	421.09	12.6327
343.15	370.46	11.1138

System: 1-benzyl-3-(propoxymethyl)-1H-imidazolium tetrafluoroborate + benzene; phases: Liquid, Gas
Fixed: Mole fraction of benzene = 0
Property: Activity coefficient of benzene (Liquid); method: Chromatography
Temperature, K	Activity coefficient of benzene	uncertainty
323.15	2.01	.0603
333.15	2	.06
343.15	1.99	.0597

System: 1-benzyl-3-(propoxymethyl)-1H-imidazolium tetrafluoroborate + toluene; phases: Liquid, Gas
Fixed: Mole fraction of toluene = 0
Property: Activity coefficient of toluene (Liquid); method: Chromatography
Temperature, K	Activity coefficient of toluene	uncertainty
323.15	3.12	.0936
333.15	3.03	.0909
343.15	3.04	.0912

System: 1-benzyl-3-(propoxymethyl)-1H-imidazolium tetrafluoroborate + ethylbenzene; phases: Liquid, Gas
Fixed: Mole fraction of ethylbenzene = 0
Property: Activity coefficient of ethylbenzene (Liquid); method: Chromatography
Temperature, K	Activity coefficient of ethylbenzene	uncertainty
323.15	4.89	.1467
333.15	4.71	.1413
343.15	4.73	.1419

System: 1-benzyl-3-(propoxymethyl)-1H-imidazolium tetrafluoroborate + m-xylene; phases: Liquid, Gas
Fixed: Mole fraction of m-xylene = 0
Property: Activity coefficient of m-xylene (Liquid); method: Chromatography
Temperature, K	Activity coefficient of m-xylene	uncertainty
323.15	5.41	.1623
333.15	4.91	.1473
343.15	4.91	.1473

System: 1-benzyl-3-(propoxymethyl)-1H-imidazolium tetrafluoroborate + p-xylene; phases: Liquid, Gas
Fixed: Mole fraction of p-xylene = 0
Property: Activity coefficient of p-xylene (Liquid); method: Chromatography
Temperature, K	Activity coefficient of p-xylene	uncertainty
323.15	5.12	.1536
333.15	4.85	.1455
343.15	4.88	.1464

System: 1-benzyl-3-(propoxymethyl)-1H-imidazolium tetrafluoroborate + o-xylene; phases: Liquid, Gas
Fixed: Mole fraction of o-xylene = 0
Property: Activity coefficient of o-xylene (Liquid); method: Chromatography
Temperature, K	Activity coefficient of o-xylene	uncertainty
323.15	4.3	.129
333.15	4.17	.1251
343.15	4.22	.1266

System: 1-benzyl-3-(propoxymethyl)-1H-imidazolium tetrafluoroborate + 1-hexyne; phases: Liquid, Gas
Fixed: Mole fraction of 1-hexyne = 0
Property: Activity coefficient of 1-hexyne (Liquid); method: Chromatography
Temperature, K	Activity coefficient of 1-hexyne	uncertainty
323.15	5.61	.1683
333.15	5.52	.1656
343.15	5.42	.1626

System: 1-benzyl-3-(propoxymethyl)-1H-imidazolium tetrafluoroborate + 1-heptyne; phases: Liquid, Gas
Fixed: Mole fraction of 1-heptyne = 0
Property: Activity coefficient of 1-heptyne (Liquid); method: Chromatography
Temperature, K	Activity coefficient of 1-heptyne	uncertainty
323.15	8.53	.2559
333.15	8.35	.2505
343.15	8.28	.2484

System: 1-benzyl-3-(propoxymethyl)-1H-imidazolium tetrafluoroborate + 2-butanone; phases: Liquid, Gas
Fixed: Mole fraction of 2-butanone = 0
Property: Activity coefficient of 2-butanone (Liquid); method: Chromatography
Temperature, K	Activity coefficient of 2-butanone	uncertainty
323.15	1.06	.0318
333.15	.96	.0288
343.15	.89	.0267

System: 1-benzyl-3-(propoxymethyl)-1H-imidazolium tetrafluoroborate + 2-pentanone; phases: Liquid, Gas
Fixed: Mole fraction of 2-pentanone = 0
Property: Activity coefficient of 2-pentanone (Liquid); method: Chromatography
Temperature, K	Activity coefficient of 2-pentanone	uncertainty
323.15	1.79	.0537
333.15	1.76	.0528
343.15	1.82	.0546

System: 1-benzyl-3-(propoxymethyl)-1H-imidazolium tetrafluoroborate + 3-pentanone; phases: Liquid, Gas
Fixed: Mole fraction of 3-pentanone = 0
Property: Activity coefficient of 3-pentanone (Liquid); method: Chromatography
Temperature, K	Activity coefficient of 3-pentanone	uncertainty
323.15	1.73	.0519
333.15	1.74	.0522
343.15	1.75	.0525

System: 1-benzyl-3-(propoxymethyl)-1H-imidazolium tetrafluoroborate + 1,4-dioxane; phases: Liquid, Gas
Fixed: Mole fraction of 1,4-dioxane = 0
Property: Activity coefficient of 1,4-dioxane (Liquid); method: Chromatography
Temperature, K	Activity coefficient of 1,4-dioxane	uncertainty
323.15	.95	.0285
333.15	.95	.0285
343.15	.96	.0288

System: 1-benzyl-3-(propoxymethyl)-1H-imidazolium tetrafluoroborate + methanol; phases: Liquid, Gas
Fixed: Mole fraction of methanol = 0
Property: Activity coefficient of methanol (Liquid); method: Chromatography
Temperature, K	Activity coefficient of methanol	uncertainty
323.15	1.13	.0339
333.15	1.04	.0312
343.15	.97	.0291

System: 1-benzyl-3-(propoxymethyl)-1H-imidazolium tetrafluoroborate + ethanol; phases: Liquid, Gas
Fixed: Mole fraction of ethanol = 0
Property: Activity coefficient of ethanol (Liquid); method: Chromatography
Temperature, K	Activity coefficient of ethanol	uncertainty
323.15	1.65	.0495
333.15	1.49	.0447
343.15	1.38	.0414

System: 1-benzyl-3-(propoxymethyl)-1H-imidazolium tetrafluoroborate + 1-propanol; phases: Liquid, Gas
Fixed: Mole fraction of 1-propanol = 0
Property: Activity coefficient of 1-propanol (Liquid); method: Chromatography
Temperature, K	Activity coefficient of 1-propanol	uncertainty
323.15	2.15	.0645
333.15	1.92	.0576
343.15	1.78	.0534

System: 1-benzyl-3-(propoxymethyl)-1H-imidazolium tetrafluoroborate + 2-propanol; phases: Liquid, Gas
Fixed: Mole fraction of 2-propanol = 0
Property: Activity coefficient of 2-propanol (Liquid); method: Chromatography
Temperature, K	Activity coefficient of 2-propanol	uncertainty
323.15	2.19	.0657
333.15	1.96	.0588
343.15	1.81	.0543

System: 1-benzyl-3-(propoxymethyl)-1H-imidazolium tetrafluoroborate + 2-methyl-1-propanol; phases: Liquid, Gas
Fixed: Mole fraction of 2-methyl-1-propanol = 0
Property: Activity coefficient of 2-methyl-1-propanol (Liquid); method: Chromatography
Temperature, K	Activity coefficient of 2-methyl-1-propanol	uncertainty
323.15	2.86	.0858
333.15	2.53	.0759
343.15	2.34	.0702

System: 1-benzyl-3-(propoxymethyl)-1H-imidazolium tetrafluoroborate + 1-butanol; phases: Liquid, Gas
Fixed: Mole fraction of 1-butanol = 0
Property: Activity coefficient of 1-butanol (Liquid); method: Chromatography
Temperature, K	Activity coefficient of 1-butanol	uncertainty
323.15	3	.09
333.15	2.59	.0777
343.15	2.39	.0717

System: 1-benzyl-3-(propoxymethyl)-1H-imidazolium tetrafluoroborate + diethyl ether; phases: Liquid, Gas
Fixed: Mole fraction of diethyl ether = 0
Property: Activity coefficient of diethyl ether (Liquid); method: Chromatography
Temperature, K	Activity coefficient of diethyl ether	uncertainty
323.15	6.03	.1809
333.15	5.79	.1737

System: 1-benzyl-3-(propoxymethyl)-1H-imidazolium tetrafluoroborate + diisopropyl ether; phases: Liquid, Gas
Fixed: Mole fraction of diisopropyl ether = 0
Property: Activity coefficient of diisopropyl ether (Liquid); method: Chromatography
Temperature, K	Activity coefficient of diisopropyl ether	uncertainty
323.15	17.6	.528
333.15	14.82	.4446

System: 1-benzyl-3-(propoxymethyl)-1H-imidazolium tetrafluoroborate + chloroform; phases: Liquid, Gas
Fixed: Mole fraction of chloroform = 0
Property: Activity coefficient of chloroform (Liquid); method: Chromatography
Temperature, K	Activity coefficient of chloroform	uncertainty
323.15	1.16	.0348
333.15	1.15	.0345
343.15	1.2	.036

System: 1-benzyl-3-(propoxymethyl)-1H-imidazolium tetrafluoroborate + dichloromethane; phases: Liquid, Gas
Fixed: Mole fraction of dichloromethane = 0
Property: Activity coefficient of dichloromethane (Liquid); method: Chromatography
Temperature, K	Activity coefficient of dichloromethane	uncertainty
323.15	.78	.0234
333.15	.78	.0234
343.15	.79	.0237

System: 1-benzyl-3-(propoxymethyl)-1H-imidazolium tetrafluoroborate + tetrachloromethane; phases: Liquid, Gas
Fixed: Mole fraction of tetrachloromethane = 0
Property: Activity coefficient of tetrachloromethane (Liquid); method: Chromatography
Temperature, K	Activity coefficient of tetrachloromethane	uncertainty
323.15	5.01	.1503
333.15	4.71	.1413
343.15	4.58	.1374

System: 1-benzyl-3-(propoxymethyl)-1H-imidazolium tetrafluoroborate + acetonitrile; phases: Liquid, Gas
Fixed: Mole fraction of acetonitrile = 0
Property: Activity coefficient of acetonitrile (Liquid); method: Chromatography
Temperature, K	Activity coefficient of acetonitrile	uncertainty
323.15	.63	.0189
333.15	.63	.0189
343.15	.63	.0189

System: 1-benzyl-3-(propoxymethyl)-1H-imidazolium tetrafluoroborate + nitromethane; phases: Liquid, Gas
Fixed: Mole fraction of nitromethane = 0
Property: Activity coefficient of nitromethane (Liquid); method: Chromatography
Temperature, K	Activity coefficient of nitromethane	uncertainty
323.15	.58	.0174
333.15	.57	.0171
343.15	.58	.0174

System: 1-benzyl-3-(propoxymethyl)-1H-imidazolium tetrafluoroborate + 1-nitropropane; phases: Liquid, Gas
Fixed: Mole fraction of 1-nitropropane = 0
Property: Activity coefficient of 1-nitropropane (Liquid); method: Chromatography
Temperature, K	Activity coefficient of 1-nitropropane	uncertainty
323.15	1.16	.0348
333.15	1.12	.0336
343.15	1.14	.0342

System: 1-benzyl-3-(propoxymethyl)-1H-imidazolium tetrafluoroborate + pyridine; phases: Liquid, Gas
Fixed: Mole fraction of pyridine = 0
Property: Activity coefficient of pyridine (Liquid); method: Chromatography
Temperature, K	Activity coefficient of pyridine	uncertainty
323.15	.6	.018
333.15	.61	.0183
343.15	.65	.0195

System: 1-benzyl-3-(propoxymethyl)-1H-imidazolium tetrafluoroborate + thiophene; phases: Liquid, Gas
Fixed: Mole fraction of thiophene = 0
Property: Activity coefficient of thiophene (Liquid); method: Chromatography
Temperature, K	Activity coefficient of thiophene	uncertainty
323.15	1.33	.0399
333.15	1.27	.0381
343.15	1.25	.0375

System: 1-benzyl-3-(propoxymethyl)-1H-imidazolium dicyanamide + hexane; phases: Liquid, Gas
Fixed: Mole fraction of hexane = 0
Property: Activity coefficient of hexane (Liquid); method: Chromatography
Temperature, K	Activity coefficient of hexane	uncertainty
323.15	32.41	.9723

System: 1-benzyl-3-(propoxymethyl)-1H-imidazolium dicyanamide + 3-methylpentane; phases: Liquid, Gas
Fixed: Mole fraction of 3-methylpentane = 0
Property: Activity coefficient of 3-methylpentane (Liquid); method: Chromatography
Temperature, K	Activity coefficient of 3-methylpentane	uncertainty
323.15	28.53	.8559

System: 1-benzyl-3-(propoxymethyl)-1H-imidazolium dicyanamide + heptane; phases: Liquid, Gas
Fixed: Mole fraction of heptane = 0
Property: Activity coefficient of heptane (Liquid); method: Chromatography
Temperature, K	Activity coefficient of heptane	uncertainty
323.15	48.02	1.4406
333.15	44.88	1.3464
343.15	41.78	1.2534

System: 1-benzyl-3-(propoxymethyl)-1H-imidazolium dicyanamide + octane; phases: Liquid, Gas
Fixed: Mole fraction of octane = 0
Property: Activity coefficient of octane (Liquid); method: Chromatography
Temperature, K	Activity coefficient of octane	uncertainty
323.15	70.07	2.1021
333.15	61.5	1.845
343.15	57.77	1.7331

System: 1-benzyl-3-(propoxymethyl)-1H-imidazolium dicyanamide + nonane; phases: Liquid, Gas
Fixed: Mole fraction of nonane = 0
Property: Activity coefficient of nonane (Liquid); method: Chromatography
Temperature, K	Activity coefficient of nonane	uncertainty
323.15	110.28	3.3084
333.15	93.58	2.8074
343.15	76.2	2.286

System: 1-benzyl-3-(propoxymethyl)-1H-imidazolium dicyanamide + decane; phases: Liquid, Gas
Fixed: Mole fraction of decane = 0
Property: Activity coefficient of decane (Liquid); method: Chromatography
Temperature, K	Activity coefficient of decane	uncertainty
323.15	144	4.32
333.15	122.63	3.6789
343.15	104.51	3.1353

System: 1-benzyl-3-(propoxymethyl)-1H-imidazolium dicyanamide + undecane; phases: Liquid, Gas
Fixed: Mole fraction of undecane = 0
Property: Activity coefficient of undecane (Liquid); method: Chromatography
Temperature, K	Activity coefficient of undecane	uncertainty
323.15	207.55	6.2265
333.15	174.76	5.2428
343.15	140.14	4.2042

System: 1-benzyl-3-(propoxymethyl)-1H-imidazolium dicyanamide + methylcyclopentane; phases: Liquid, Gas
Fixed: Mole fraction of methylcyclopentane = 0
Property: Activity coefficient of methylcyclopentane (Liquid); method: Chromatography
Temperature, K	Activity coefficient of methylcyclopentane	uncertainty
323.15	15.7	.471
333.15	15.2	.456
343.15	13.53	.4059

System: 1-benzyl-3-(propoxymethyl)-1H-imidazolium dicyanamide + cyclohexane; phases: Liquid, Gas
Fixed: Mole fraction of cyclohexane = 0
Property: Activity coefficient of cyclohexane (Liquid); method: Chromatography
Temperature, K	Activity coefficient of cyclohexane	uncertainty
323.15	13.14	.3942
333.15	12.3	.369
343.15	11.53	.3459

System: 1-benzyl-3-(propoxymethyl)-1H-imidazolium dicyanamide + methylcyclohexane; phases: Liquid, Glass
Fixed: Mole fraction of methylcyclohexane = 0
Property: Activity coefficient of methylcyclohexane (Liquid); method: Chromatography
Temperature, K	Activity coefficient of methylcyclohexane	uncertainty
323.15	21.33	.6399
333.15	20.38	.6114
343.15	18.19	.5457

System: 1-benzyl-3-(propoxymethyl)-1H-imidazolium dicyanamide + cycloheptane; phases: Liquid, Gas
Fixed: Mole fraction of cycloheptane = 0
Property: Activity coefficient of cycloheptane (Liquid); method: Chromatography
Temperature, K	Activity coefficient of cycloheptane	uncertainty
323.15	35.82	1.0746
333.15	47.16	1.4148
343.15	56.28	1.6884

System: 1-benzyl-3-(propoxymethyl)-1H-imidazolium dicyanamide + benzene; phases: Liquid, Gas
Fixed: Mole fraction of benzene = 0
Property: Activity coefficient of benzene (Liquid); method: Chromatography
Temperature, K	Activity coefficient of benzene	uncertainty
323.15	1.51	.0453
333.15	1.5	.045
343.15	1.5	.045

System: 1-benzyl-3-(propoxymethyl)-1H-imidazolium dicyanamide + toluene; phases: Liquid, Gas
Fixed: Mole fraction of toluene = 0
Property: Activity coefficient of toluene (Liquid); method: Chromatography
Temperature, K	Activity coefficient of toluene	uncertainty
323.15	2.29	.0687
333.15	2.26	.0678
343.15	2.25	.0675

System: 1-benzyl-3-(propoxymethyl)-1H-imidazolium dicyanamide + ethylbenzene; phases: Liquid, Gas
Fixed: Mole fraction of ethylbenzene = 0
Property: Activity coefficient of ethylbenzene (Liquid); method: Chromatography
Temperature, K	Activity coefficient of ethylbenzene	uncertainty
323.15	3.41	.1023
333.15	3.36	.1008
343.15	3.32	.0996

System: 1-benzyl-3-(propoxymethyl)-1H-imidazolium dicyanamide + m-xylene; phases: Liquid, Gas
Fixed: Mole fraction of m-xylene = 0
Property: Activity coefficient of m-xylene (Liquid); method: Chromatography
Temperature, K	Activity coefficient of m-xylene	uncertainty
323.15	3.62	.1086
333.15	3.52	.1056
343.15	3.42	.1026

System: 1-benzyl-3-(propoxymethyl)-1H-imidazolium dicyanamide + p-xylene; phases: Liquid, Gas
Fixed: Mole fraction of p-xylene = 0
Property: Activity coefficient of p-xylene (Liquid); method: Chromatography
Temperature, K	Activity coefficient of p-xylene	uncertainty
323.15	3.66	.1098
333.15	3.56	.1068
343.15	3.46	.1038

System: 1-benzyl-3-(propoxymethyl)-1H-imidazolium dicyanamide + o-xylene; phases: Liquid, Gas
Fixed: Mole fraction of o-xylene = 0
Property: Activity coefficient of o-xylene (Liquid); method: Chromatography
Temperature, K	Activity coefficient of o-xylene	uncertainty
323.15	3.05	.0915
333.15	3.03	.0909
343.15	3.01	.0903

System: 1-benzyl-3-(propoxymethyl)-1H-imidazolium dicyanamide + 1-hexene; phases: Liquid, Gas
Fixed: Mole fraction of 1-hexene = 0
Property: Activity coefficient of 1-hexene (Liquid); method: Chromatography
Temperature, K	Activity coefficient of 1-hexene	uncertainty
323.15	15.86	.4758
333.15	14.8	.444

System: 1-benzyl-3-(propoxymethyl)-1H-imidazolium dicyanamide + 1-hexyne; phases: Liquid, Gas
Fixed: Mole fraction of 1-hexyne = 0
Property: Activity coefficient of 1-hexyne (Liquid); method: Chromatography
Temperature, K	Activity coefficient of 1-hexyne	uncertainty
323.15	4.41	.1323
333.15	4.29	.1287

System: 1-benzyl-3-(propoxymethyl)-1H-imidazolium dicyanamide + 1-heptyne; phases: Liquid, Gas
Fixed: Mole fraction of 1-heptyne = 0
Property: Activity coefficient of 1-heptyne (Liquid); method: Chromatography
Temperature, K	Activity coefficient of 1-heptyne	uncertainty
323.15	6.34	.1902
333.15	6.08	.1824

System: 1-benzyl-3-(propoxymethyl)-1H-imidazolium dicyanamide + 2-butanone; phases: Liquid, Gas
Fixed: Mole fraction of 2-butanone = 0
Property: Activity coefficient of 2-butanone (Liquid); method: Chromatography
Temperature, K	Activity coefficient of 2-butanone	uncertainty
323.15	.9	.027
333.15	.87	.0261
343.15	.81	.0243

System: 1-benzyl-3-(propoxymethyl)-1H-imidazolium dicyanamide + 2-pentanone; phases: Liquid, Gas
Fixed: Mole fraction of 2-pentanone = 0
Property: Activity coefficient of 2-pentanone (Liquid); method: Chromatography
Temperature, K	Activity coefficient of 2-pentanone	uncertainty
323.15	1.45	.0435
333.15	1.51	.0453
343.15	1.51	.0453

System: 1-benzyl-3-(propoxymethyl)-1H-imidazolium dicyanamide + 3-pentanone; phases: Liquid, Gas
Fixed: Mole fraction of 3-pentanone = 0
Property: Activity coefficient of 3-pentanone (Liquid); method: Chromatography
Temperature, K	Activity coefficient of 3-pentanone	uncertainty
323.15	1.33	.0399
333.15	1.4	.042
343.15	1.43	.0429

System: 1-benzyl-3-(propoxymethyl)-1H-imidazolium dicyanamide + 1,4-dioxane; phases: Liquid, Gas
Fixed: Mole fraction of 1,4-dioxane = 0
Property: Activity coefficient of 1,4-dioxane (Liquid); method: Chromatography
Temperature, K	Activity coefficient of 1,4-dioxane	uncertainty
323.15	.84	.0252
333.15	.88	.0264
343.15	.89	.0267

System: 1-benzyl-3-(propoxymethyl)-1H-imidazolium dicyanamide + methanol; phases: Liquid, Gas
Fixed: Mole fraction of methanol = 0
Property: Activity coefficient of methanol (Liquid); method: Chromatography
Temperature, K	Activity coefficient of methanol	uncertainty
323.15	.39	.0117
333.15	.4	.012
343.15	.4	.012

System: 1-benzyl-3-(propoxymethyl)-1H-imidazolium dicyanamide + ethanol; phases: Liquid, Gas
Fixed: Mole fraction of ethanol = 0
Property: Activity coefficient of ethanol (Liquid); method: Chromatography
Temperature, K	Activity coefficient of ethanol	uncertainty
323.15	.73	.0219
333.15	.6	.018
343.15	.59	.0177

System: 1-benzyl-3-(propoxymethyl)-1H-imidazolium dicyanamide + 1-propanol; phases: Liquid, Gas
Fixed: Mole fraction of 1-propanol = 0
Property: Activity coefficient of 1-propanol (Liquid); method: Chromatography
Temperature, K	Activity coefficient of 1-propanol	uncertainty
323.15	.84	.0252
333.15	.7	.021
343.15	.69	.0207

System: 1-benzyl-3-(propoxymethyl)-1H-imidazolium dicyanamide + 2-propanol; phases: Liquid, Gas
Fixed: Mole fraction of 2-propanol = 0
Property: Activity coefficient of 2-propanol (Liquid); method: Chromatography
Temperature, K	Activity coefficient of 2-propanol	uncertainty
323.15	.85	.0255
333.15	.84	.0252
343.15	.82	.0246

System: 1-benzyl-3-(propoxymethyl)-1H-imidazolium dicyanamide + 2-methyl-1-propanol; phases: Liquid, Gas
Fixed: Mole fraction of 2-methyl-1-propanol = 0
Property: Activity coefficient of 2-methyl-1-propanol (Liquid); method: Chromatography
Temperature, K	Activity coefficient of 2-methyl-1-propanol	uncertainty
323.15	.9	.027
333.15	.86	.0258

System: 1-benzyl-3-(propoxymethyl)-1H-imidazolium dicyanamide + 1-butanol; phases: Liquid, Gas
Fixed: Mole fraction of 1-butanol = 0
Property: Activity coefficient of 1-butanol (Liquid); method: Chromatography
Temperature, K	Activity coefficient of 1-butanol	uncertainty
323.15	.93	.0279
333.15	.88	.0264
343.15	.82	.0246

System: 1-benzyl-3-(propoxymethyl)-1H-imidazolium dicyanamide + diisopropyl ether; phases: Liquid, Gas
Fixed: Mole fraction of diisopropyl ether = 0
Property: Activity coefficient of diisopropyl ether (Liquid); method: Chromatography
Temperature, K	Activity coefficient of diisopropyl ether	uncertainty
323.15	12.76	.3828
333.15	12.09	.3627
343.15	12.03	.3609

System: 1-benzyl-3-(propoxymethyl)-1H-imidazolium dicyanamide + chloroform; phases: Liquid, Gas
Fixed: Mole fraction of chloroform = 0
Property: Activity coefficient of chloroform (Liquid); method: Chromatography
Temperature, K	Activity coefficient of chloroform	uncertainty
323.15	.62	.0186
333.15	.65	.0195
343.15	.69	.0207

System: 1-benzyl-3-(propoxymethyl)-1H-imidazolium dicyanamide + dichloromethane; phases: Liquid, Gas
Fixed: Mole fraction of dichloromethane = 0
Property: Activity coefficient of dichloromethane (Liquid); method: Chromatography
Temperature, K	Activity coefficient of dichloromethane	uncertainty
323.15	.58	.0174
333.15	.63	.0189
343.15	.68	.0204

System: 1-benzyl-3-(propoxymethyl)-1H-imidazolium dicyanamide + tetrachloromethane; phases: Liquid, Gas
Fixed: Mole fraction of tetrachloromethane = 0
Property: Activity coefficient of tetrachloromethane (Liquid); method: Chromatography
Temperature, K	Activity coefficient of tetrachloromethane	uncertainty
323.15	2.5	.075
333.15	2.58	.0774
343.15	2.67	.0801

System: 1-benzyl-3-(propoxymethyl)-1H-imidazolium dicyanamide + acetonitrile; phases: Liquid, Gas
Fixed: Mole fraction of acetonitrile = 0
Property: Activity coefficient of acetonitrile (Liquid); method: Chromatography
Temperature, K	Activity coefficient of acetonitrile	uncertainty
323.15	.72	.0216
333.15	.76	.0228
343.15	.77	.0231

System: 1-benzyl-3-(propoxymethyl)-1H-imidazolium dicyanamide + nitromethane; phases: Liquid, Gas
Fixed: Mole fraction of nitromethane = 0
Property: Activity coefficient of nitromethane (Liquid); method: Chromatography
Temperature, K	Activity coefficient of nitromethane	uncertainty
323.15	1.06	.0318
333.15	.71	.0213
343.15	.72	.0216

System: 1-benzyl-3-(propoxymethyl)-1H-imidazolium dicyanamide + 1-nitropropane; phases: Liquid, Gas
Fixed: Mole fraction of 1-nitropropane = 0
Property: Activity coefficient of 1-nitropropane (Liquid); method: Chromatography
Temperature, K	Activity coefficient of 1-nitropropane	uncertainty
323.15	1.04	.0312
333.15	1.06	.0318
343.15	1.06	.0318

System: 1-benzyl-3-(propoxymethyl)-1H-imidazolium dicyanamide + triethylamine; phases: Liquid, Gas
Fixed: Mole fraction of triethylamine = 0
Property: Activity coefficient of triethylamine (Liquid); method: Chromatography
Temperature, K	Activity coefficient of triethylamine	uncertainty
323.15	9.22	.2766

System: 1-benzyl-3-(propoxymethyl)-1H-imidazolium dicyanamide + pyridine; phases: Liquid, Gas
Fixed: Mole fraction of pyridine = 0
Property: Activity coefficient of pyridine (Liquid); method: Chromatography
Temperature, K	Activity coefficient of pyridine	uncertainty
323.15	.67	.0201
333.15	.69	.0207
343.15	.71	.0213

System: 1-benzyl-3-(propoxymethyl)-1H-imidazolium dicyanamide + thiophene; phases: Liquid, Gas
Fixed: Mole fraction of thiophene = 0
Property: Activity coefficient of thiophene (Liquid); method: Chromatography
Temperature, K	Activity coefficient of thiophene	uncertainty
323.15	.98	.0294
333.15	1.02	.0306
343.15	1.04	.0312

System: 3,3'-[propane-1,3-diylbis(oxymethanediyl)]bis(1-methyl-1H-imidazol-3-ium) bis{bis[(trifluoromethyl)sulfonyl]imide} + hexane; phases: Liquid, Gas
Fixed: Mole fraction of hexane = 0
Property: Activity coefficient of hexane (Liquid); method: Chromatography
Temperature, K	Activity coefficient of hexane	uncertainty
323.15	18.18	.5454
333.15	30.96	.9288

System: 3,3'-[propane-1,3-diylbis(oxymethanediyl)]bis(1-methyl-1H-imidazol-3-ium) bis{bis[(trifluoromethyl)sulfonyl]imide} + 3-methylpentane; phases: Liquid, Gas
Fixed: Mole fraction of 3-methylpentane = 0
Property: Activity coefficient of 3-methylpentane (Liquid); method: Chromatography
Temperature, K	Activity coefficient of 3-methylpentane	uncertainty
323.15	39.2	1.176
333.15	14.44	.4332

System: 3,3'-[propane-1,3-diylbis(oxymethanediyl)]bis(1-methyl-1H-imidazol-3-ium) bis{bis[(trifluoromethyl)sulfonyl]imide} + heptane; phases: Liquid, Gas
Fixed: Mole fraction of heptane = 0
Property: Activity coefficient of heptane (Liquid); method: Chromatography
Temperature, K	Activity coefficient of heptane	uncertainty
323.15	52.99	1.5897
333.15	33.99	1.0197

System: 3,3'-[propane-1,3-diylbis(oxymethanediyl)]bis(1-methyl-1H-imidazol-3-ium) bis{bis[(trifluoromethyl)sulfonyl]imide} + octane; phases: Liquid, Gas
Fixed: Mole fraction of octane = 0
Property: Activity coefficient of octane (Liquid); method: Chromatography
Temperature, K	Activity coefficient of octane	uncertainty
323.15	60.38	1.8114
333.15	60.6	1.818
343.15	38.36	1.1508

System: 3,3'-[propane-1,3-diylbis(oxymethanediyl)]bis(1-methyl-1H-imidazol-3-ium) bis{bis[(trifluoromethyl)sulfonyl]imide} + nonane; phases: Liquid, Gas
Fixed: Mole fraction of nonane = 0
Property: Activity coefficient of nonane (Liquid); method: Chromatography
Temperature, K	Activity coefficient of nonane	uncertainty
323.15	105.11	3.1533
333.15	96.74	2.9022
343.15	72.42	2.1726

System: 3,3'-[propane-1,3-diylbis(oxymethanediyl)]bis(1-methyl-1H-imidazol-3-ium) bis{bis[(trifluoromethyl)sulfonyl]imide} + decane; phases: Liquid, Gas
Fixed: Mole fraction of decane = 0
Property: Activity coefficient of decane (Liquid); method: Chromatography
Temperature, K	Activity coefficient of decane	uncertainty
323.15	141.47	4.2441
333.15	131.61	3.9483
343.15	109.32	3.2796

System: 3,3'-[propane-1,3-diylbis(oxymethanediyl)]bis(1-methyl-1H-imidazol-3-ium) bis{bis[(trifluoromethyl)sulfonyl]imide} + undecane; phases: Liquid, Gas
Fixed: Mole fraction of undecane = 0
Property: Activity coefficient of undecane (Liquid); method: Chromatography
Temperature, K	Activity coefficient of undecane	uncertainty
323.15	193.31	5.7993
333.15	191.36	5.7408
343.15	162.04	4.8612

System: 3,3'-[propane-1,3-diylbis(oxymethanediyl)]bis(1-methyl-1H-imidazol-3-ium) bis{bis[(trifluoromethyl)sulfonyl]imide} + methylcyclopentane; phases: Liquid, Gas
Fixed: Mole fraction of methylcyclopentane = 0
Property: Activity coefficient of methylcyclopentane (Liquid); method: Chromatography
Temperature, K	Activity coefficient of methylcyclopentane	uncertainty
323.15	16.35	.4905
333.15	10.21	.3063

System: 3,3'-[propane-1,3-diylbis(oxymethanediyl)]bis(1-methyl-1H-imidazol-3-ium) bis{bis[(trifluoromethyl)sulfonyl]imide} + cyclohexane; phases: Liquid, Gas
Fixed: Mole fraction of cyclohexane = 0
Property: Activity coefficient of cyclohexane (Liquid); method: Chromatography
Temperature, K	Activity coefficient of cyclohexane	uncertainty
323.15	17.56	.5268
333.15	12.44	.3732

System: 3,3'-[propane-1,3-diylbis(oxymethanediyl)]bis(1-methyl-1H-imidazol-3-ium) bis{bis[(trifluoromethyl)sulfonyl]imide} + methylcyclohexane; phases: Liquid, Glass
Fixed: Mole fraction of methylcyclohexane = 0
Property: Activity coefficient of methylcyclohexane (Liquid); method: Chromatography
Temperature, K	Activity coefficient of methylcyclohexane	uncertainty
323.15	21.03	.6309
333.15	18.31	.5493

System: 3,3'-[propane-1,3-diylbis(oxymethanediyl)]bis(1-methyl-1H-imidazol-3-ium) bis{bis[(trifluoromethyl)sulfonyl]imide} + cycloheptane; phases: Liquid, Gas
Fixed: Mole fraction of cycloheptane = 0
Property: Activity coefficient of cycloheptane (Liquid); method: Chromatography
Temperature, K	Activity coefficient of cycloheptane	uncertainty
323.15	41.53	1.2459
333.15	51.85	1.5555
343.15	63.55	1.9065

System: 3,3'-[propane-1,3-diylbis(oxymethanediyl)]bis(1-methyl-1H-imidazol-3-ium) bis{bis[(trifluoromethyl)sulfonyl]imide} + benzene; phases: Liquid, Gas
Fixed: Mole fraction of benzene = 0
Property: Activity coefficient of benzene (Liquid); method: Chromatography
Temperature, K	Activity coefficient of benzene	uncertainty
323.15	.94	.0282
333.15	.94	.0282
343.15	.9	.027

System: 3,3'-[propane-1,3-diylbis(oxymethanediyl)]bis(1-methyl-1H-imidazol-3-ium) bis{bis[(trifluoromethyl)sulfonyl]imide} + toluene; phases: Liquid, Gas
Fixed: Mole fraction of toluene = 0
Property: Activity coefficient of toluene (Liquid); method: Chromatography
Temperature, K	Activity coefficient of toluene	uncertainty
323.15	1.46	.0438
333.15	1.48	.0444
343.15	1.46	.0438

System: 3,3'-[propane-1,3-diylbis(oxymethanediyl)]bis(1-methyl-1H-imidazol-3-ium) bis{bis[(trifluoromethyl)sulfonyl]imide} + ethylbenzene; phases: Liquid, Gas
Fixed: Mole fraction of ethylbenzene = 0
Property: Activity coefficient of ethylbenzene (Liquid); method: Chromatography
Temperature, K	Activity coefficient of ethylbenzene	uncertainty
323.15	2.41	.0723
333.15	2.44	.0732
343.15	2.38	.0714

System: 3,3'-[propane-1,3-diylbis(oxymethanediyl)]bis(1-methyl-1H-imidazol-3-ium) bis{bis[(trifluoromethyl)sulfonyl]imide} + m-xylene; phases: Liquid, Gas
Fixed: Mole fraction of m-xylene = 0
Property: Activity coefficient of m-xylene (Liquid); method: Chromatography
Temperature, K	Activity coefficient of m-xylene	uncertainty
323.15	2.39	.0717
333.15	2.41	.0723
343.15	2.38	.0714

System: 3,3'-[propane-1,3-diylbis(oxymethanediyl)]bis(1-methyl-1H-imidazol-3-ium) bis{bis[(trifluoromethyl)sulfonyl]imide} + p-xylene; phases: Liquid, Gas
Fixed: Mole fraction of p-xylene = 0
Property: Activity coefficient of p-xylene (Liquid); method: Chromatography
Temperature, K	Activity coefficient of p-xylene	uncertainty
323.15	2.39	.0717
333.15	2.41	.0723
343.15	2.34	.0702

System: 3,3'-[propane-1,3-diylbis(oxymethanediyl)]bis(1-methyl-1H-imidazol-3-ium) bis{bis[(trifluoromethyl)sulfonyl]imide} + o-xylene; phases: Liquid, Gas
Fixed: Mole fraction of o-xylene = 0
Property: Activity coefficient of o-xylene (Liquid); method: Chromatography
Temperature, K	Activity coefficient of o-xylene	uncertainty
323.15	2.08	.0624
333.15	2.1	.063
343.15	2.04	.0612

System: 3,3'-[propane-1,3-diylbis(oxymethanediyl)]bis(1-methyl-1H-imidazol-3-ium) bis{bis[(trifluoromethyl)sulfonyl]imide} + 1-hexene; phases: Liquid, Gas
Fixed: Mole fraction of 1-hexene = 0
Property: Activity coefficient of 1-hexene (Liquid); method: Chromatography
Temperature, K	Activity coefficient of 1-hexene	uncertainty
323.15	15.08	.4524
333.15	10.05	.3015

System: 3,3'-[propane-1,3-diylbis(oxymethanediyl)]bis(1-methyl-1H-imidazol-3-ium) bis{bis[(trifluoromethyl)sulfonyl]imide} + 1-hexyne; phases: Liquid, Gas
Fixed: Mole fraction of 1-hexyne = 0
Property: Activity coefficient of 1-hexyne (Liquid); method: Chromatography
Temperature, K	Activity coefficient of 1-hexyne	uncertainty
323.15	3.81	.1143
333.15	3.68	.1104
343.15	3.4	.102

System: 3,3'-[propane-1,3-diylbis(oxymethanediyl)]bis(1-methyl-1H-imidazol-3-ium) bis{bis[(trifluoromethyl)sulfonyl]imide} + 1-heptyne; phases: Liquid, Gas
Fixed: Mole fraction of 1-heptyne = 0
Property: Activity coefficient of 1-heptyne (Liquid); method: Chromatography
Temperature, K	Activity coefficient of 1-heptyne	uncertainty
323.15	5.9	.177
333.15	6.09	.1827
343.15	5.71	.1713

System: 3,3'-[propane-1,3-diylbis(oxymethanediyl)]bis(1-methyl-1H-imidazol-3-ium) bis{bis[(trifluoromethyl)sulfonyl]imide} + 2-butanone; phases: Liquid, Gas
Fixed: Mole fraction of 2-butanone = 0
Property: Activity coefficient of 2-butanone (Liquid); method: Chromatography
Temperature, K	Activity coefficient of 2-butanone	uncertainty
323.15	.36	.0108
333.15	.34	.0102
343.15	.32	.0096

System: 3,3'-[propane-1,3-diylbis(oxymethanediyl)]bis(1-methyl-1H-imidazol-3-ium) bis{bis[(trifluoromethyl)sulfonyl]imide} + 2-pentanone; phases: Liquid, Gas
Fixed: Mole fraction of 2-pentanone = 0
Property: Activity coefficient of 2-pentanone (Liquid); method: Chromatography
Temperature, K	Activity coefficient of 2-pentanone	uncertainty
323.15	.62	.0186
333.15	.65	.0195
343.15	.63	.0189

System: 3,3'-[propane-1,3-diylbis(oxymethanediyl)]bis(1-methyl-1H-imidazol-3-ium) bis{bis[(trifluoromethyl)sulfonyl]imide} + 3-pentanone; phases: Liquid, Gas
Fixed: Mole fraction of 3-pentanone = 0
Property: Activity coefficient of 3-pentanone (Liquid); method: Chromatography
Temperature, K	Activity coefficient of 3-pentanone	uncertainty
323.15	.6	.018
333.15	.63	.0189
343.15	.63	.0189

System: 3,3'-[propane-1,3-diylbis(oxymethanediyl)]bis(1-methyl-1H-imidazol-3-ium) bis{bis[(trifluoromethyl)sulfonyl]imide} + 1,4-dioxane; phases: Liquid, Gas
Fixed: Mole fraction of 1,4-dioxane = 0
Property: Activity coefficient of 1,4-dioxane (Liquid); method: Chromatography
Temperature, K	Activity coefficient of 1,4-dioxane	uncertainty
323.15	.37	.0111
333.15	.39	.0117
343.15	.39	.0117

System: 3,3'-[propane-1,3-diylbis(oxymethanediyl)]bis(1-methyl-1H-imidazol-3-ium) bis{bis[(trifluoromethyl)sulfonyl]imide} + methanol; phases: Liquid, Gas
Fixed: Mole fraction of methanol = 0
Property: Activity coefficient of methanol (Liquid); method: Chromatography
Temperature, K	Activity coefficient of methanol	uncertainty
323.15	.76	.0228
333.15	.75	.0225
343.15	.68	.0204

System: 3,3'-[propane-1,3-diylbis(oxymethanediyl)]bis(1-methyl-1H-imidazol-3-ium) bis{bis[(trifluoromethyl)sulfonyl]imide} + ethanol; phases: Liquid, Gas
Fixed: Mole fraction of ethanol = 0
Property: Activity coefficient of ethanol (Liquid); method: Chromatography
Temperature, K	Activity coefficient of ethanol	uncertainty
323.15	1.06	.0318
333.15	.96	.0288
343.15	.89	.0267

System: 3,3'-[propane-1,3-diylbis(oxymethanediyl)]bis(1-methyl-1H-imidazol-3-ium) bis{bis[(trifluoromethyl)sulfonyl]imide} + 1-propanol; phases: Liquid, Gas
Fixed: Mole fraction of 1-propanol = 0
Property: Activity coefficient of 1-propanol (Liquid); method: Chromatography
Temperature, K	Activity coefficient of 1-propanol	uncertainty
323.15	1.43	.0429
333.15	1.32	.0396
343.15	1.19	.0357

System: 3,3'-[propane-1,3-diylbis(oxymethanediyl)]bis(1-methyl-1H-imidazol-3-ium) bis{bis[(trifluoromethyl)sulfonyl]imide} + 2-propanol; phases: Liquid, Gas
Fixed: Mole fraction of 2-propanol = 0
Property: Activity coefficient of 2-propanol (Liquid); method: Chromatography
Temperature, K	Activity coefficient of 2-propanol	uncertainty
323.15	1.31	.0393
333.15	1.22	.0366
343.15	1.05	.0315

System: 3,3'-[propane-1,3-diylbis(oxymethanediyl)]bis(1-methyl-1H-imidazol-3-ium) bis{bis[(trifluoromethyl)sulfonyl]imide} + 2-methyl-1-propanol; phases: Liquid, Gas
Fixed: Mole fraction of 2-methyl-1-propanol = 0
Property: Activity coefficient of 2-methyl-1-propanol (Liquid); method: Chromatography
Temperature, K	Activity coefficient of 2-methyl-1-propanol	uncertainty
323.15	1.87	.0561
333.15	1.71	.0513
343.15	1.5	.045

System: 3,3'-[propane-1,3-diylbis(oxymethanediyl)]bis(1-methyl-1H-imidazol-3-ium) bis{bis[(trifluoromethyl)sulfonyl]imide} + 1-butanol; phases: Liquid, Gas
Fixed: Mole fraction of 1-butanol = 0
Property: Activity coefficient of 1-butanol (Liquid); method: Chromatography
Temperature, K	Activity coefficient of 1-butanol	uncertainty
323.15	2.02	.0606
333.15	1.85	.0555
343.15	1.64	.0492

System: 3,3'-[propane-1,3-diylbis(oxymethanediyl)]bis(1-methyl-1H-imidazol-3-ium) bis{bis[(trifluoromethyl)sulfonyl]imide} + diisopropyl ether; phases: Liquid, Gas
Fixed: Mole fraction of diisopropyl ether = 0
Property: Activity coefficient of diisopropyl ether (Liquid); method: Chromatography
Temperature, K	Activity coefficient of diisopropyl ether	uncertainty
323.15	6.31	.1893
333.15	6.51	.1953
343.15	5.54	.1662

System: 3,3'-[propane-1,3-diylbis(oxymethanediyl)]bis(1-methyl-1H-imidazol-3-ium) bis{bis[(trifluoromethyl)sulfonyl]imide} + chloroform; phases: Liquid, Gas
Fixed: Mole fraction of chloroform = 0
Property: Activity coefficient of chloroform (Liquid); method: Chromatography
Temperature, K	Activity coefficient of chloroform	uncertainty
323.15	.87	.0261
333.15	.89	.0267
343.15	.71	.0213

System: 3,3'-[propane-1,3-diylbis(oxymethanediyl)]bis(1-methyl-1H-imidazol-3-ium) bis{bis[(trifluoromethyl)sulfonyl]imide} + dichloromethane; phases: Liquid, Gas
Fixed: Mole fraction of dichloromethane = 0
Property: Activity coefficient of dichloromethane (Liquid); method: Chromatography
Temperature, K	Activity coefficient of dichloromethane	uncertainty
323.15	.55	.0165
333.15	.61	.0183
343.15	.43	.0129

System: 3,3'-[propane-1,3-diylbis(oxymethanediyl)]bis(1-methyl-1H-imidazol-3-ium) bis{bis[(trifluoromethyl)sulfonyl]imide} + tetrachloromethane; phases: Liquid, Gas
Fixed: Mole fraction of tetrachloromethane = 0
Property: Activity coefficient of tetrachloromethane (Liquid); method: Chromatography
Temperature, K	Activity coefficient of tetrachloromethane	uncertainty
323.15	3.21	.0963
333.15	3.03	.0909
343.15	2.29	.0687

System: 3,3'-[propane-1,3-diylbis(oxymethanediyl)]bis(1-methyl-1H-imidazol-3-ium) bis{bis[(trifluoromethyl)sulfonyl]imide} + acetonitrile; phases: Liquid, Gas
Fixed: Mole fraction of acetonitrile = 0
Property: Activity coefficient of acetonitrile (Liquid); method: Chromatography
Temperature, K	Activity coefficient of acetonitrile	uncertainty
323.15	.28	.0084
333.15	.28	.0084
343.15	.24	.0072

System: 3,3'-[propane-1,3-diylbis(oxymethanediyl)]bis(1-methyl-1H-imidazol-3-ium) bis{bis[(trifluoromethyl)sulfonyl]imide} + nitromethane; phases: Liquid, Gas
Fixed: Mole fraction of nitromethane = 0
Property: Activity coefficient of nitromethane (Liquid); method: Chromatography
Temperature, K	Activity coefficient of nitromethane	uncertainty
323.15	.31	.0093
333.15	.31	.0093
343.15	.29	.0087

System: 3,3'-[propane-1,3-diylbis(oxymethanediyl)]bis(1-methyl-1H-imidazol-3-ium) bis{bis[(trifluoromethyl)sulfonyl]imide} + 1-nitropropane; phases: Liquid, Gas
Fixed: Mole fraction of 1-nitropropane = 0
Property: Activity coefficient of 1-nitropropane (Liquid); method: Chromatography
Temperature, K	Activity coefficient of 1-nitropropane	uncertainty
323.15	.54	.0162
333.15	.54	.0162
343.15	.53	.0159

System: 3,3'-[propane-1,3-diylbis(oxymethanediyl)]bis(1-methyl-1H-imidazol-3-ium) bis{bis[(trifluoromethyl)sulfonyl]imide} + pyridine; phases: Liquid, Gas
Fixed: Mole fraction of pyridine = 0
Property: Activity coefficient of pyridine (Liquid); method: Chromatography
Temperature, K	Activity coefficient of pyridine	uncertainty
323.15	.4	.012
333.15	.41	.0123
343.15	.41	.0123

System: 3,3'-[propane-1,3-diylbis(oxymethanediyl)]bis(1-methyl-1H-imidazol-3-ium) bis{bis[(trifluoromethyl)sulfonyl]imide} + thiophene; phases: Liquid, Gas
Fixed: Mole fraction of thiophene = 0
Property: Activity coefficient of thiophene (Liquid); method: Chromatography
Temperature, K	Activity coefficient of thiophene	uncertainty
323.15	.77	.0231
333.15	.78	.0234
343.15	.78	.0234

System: 3,3'-[propane-1,3-diylbis(oxymethanediyl)]bis(1-methyl-1H-imidazol-3-ium) bis(dicyanamide) + undecane; phases: Liquid, Gas
Fixed: Mole fraction of undecane = 0
Property: Activity coefficient of undecane (Liquid); method: Chromatography
Temperature, K	Activity coefficient of undecane	uncertainty
323.15	938.15	28.1445
333.15	899.45	26.9835
343.15	797	23.91

System: 3,3'-[propane-1,3-diylbis(oxymethanediyl)]bis(1-methyl-1H-imidazol-3-ium) bis(dicyanamide) + dodecane; phases: Liquid, Gas
Fixed: Mole fraction of dodecane = 0
Property: Activity coefficient of dodecane (Liquid); method: Chromatography
Temperature, K	Activity coefficient of dodecane	uncertainty
323.15	1149.42	34.4826
333.15	962.36	28.8708
343.15	932.26	27.9678

System: 3,3'-[propane-1,3-diylbis(oxymethanediyl)]bis(1-methyl-1H-imidazol-3-ium) bis(dicyanamide) + benzene; phases: Liquid, Gas
Fixed: Mole fraction of benzene = 0
Property: Activity coefficient of benzene (Liquid); method: Chromatography
Temperature, K	Activity coefficient of benzene	uncertainty
323.15	3.03	.0909
333.15	3.05	.0915
343.15	3.08	.0924

System: 3,3'-[propane-1,3-diylbis(oxymethanediyl)]bis(1-methyl-1H-imidazol-3-ium) bis(dicyanamide) + toluene; phases: Liquid, Gas
Fixed: Mole fraction of toluene = 0
Property: Activity coefficient of toluene (Liquid); method: Chromatography
Temperature, K	Activity coefficient of toluene	uncertainty
323.15	5.63	.1689
333.15	5.58	.1674
343.15	5.49	.1647

System: 3,3'-[propane-1,3-diylbis(oxymethanediyl)]bis(1-methyl-1H-imidazol-3-ium) bis(dicyanamide) + ethylbenzene; phases: Liquid, Gas
Fixed: Mole fraction of ethylbenzene = 0
Property: Activity coefficient of ethylbenzene (Liquid); method: Chromatography
Temperature, K	Activity coefficient of ethylbenzene	uncertainty
323.15	11.24	.3372
333.15	10.95	.3285
343.15	10.72	.3216

System: 3,3'-[propane-1,3-diylbis(oxymethanediyl)]bis(1-methyl-1H-imidazol-3-ium) bis(dicyanamide) + m-xylene; phases: Liquid, Gas
Fixed: Mole fraction of m-xylene = 0
Property: Activity coefficient of m-xylene (Liquid); method: Chromatography
Temperature, K	Activity coefficient of m-xylene	uncertainty
323.15	10.92	.3276
333.15	10.65	.3195
343.15	10.5	.315

System: 3,3'-[propane-1,3-diylbis(oxymethanediyl)]bis(1-methyl-1H-imidazol-3-ium) bis(dicyanamide) + p-xylene; phases: Liquid, Gas
Fixed: Mole fraction of p-xylene = 0
Property: Activity coefficient of p-xylene (Liquid); method: Chromatography
Temperature, K	Activity coefficient of p-xylene	uncertainty
323.15	10.48	.3144
333.15	10.15	.3045
343.15	9.96	.2988

System: 3,3'-[propane-1,3-diylbis(oxymethanediyl)]bis(1-methyl-1H-imidazol-3-ium) bis(dicyanamide) + o-xylene; phases: Liquid, Gas
Fixed: Mole fraction of o-xylene = 0
Property: Activity coefficient of o-xylene (Liquid); method: Chromatography
Temperature, K	Activity coefficient of o-xylene	uncertainty
323.15	8.42	.2526
333.15	8.26	.2478
343.15	8.25	.2475

System: 3,3'-[propane-1,3-diylbis(oxymethanediyl)]bis(1-methyl-1H-imidazol-3-ium) bis(dicyanamide) + 1-hexyne; phases: Liquid, Gas
Fixed: Mole fraction of 1-hexyne = 0
Property: Activity coefficient of 1-hexyne (Liquid); method: Chromatography
Temperature, K	Activity coefficient of 1-hexyne	uncertainty
323.15	15.79	.4737
333.15	15.24	.4572
343.15	14.64	.4392

System: 3,3'-[propane-1,3-diylbis(oxymethanediyl)]bis(1-methyl-1H-imidazol-3-ium) bis(dicyanamide) + 1-heptyne; phases: Liquid, Gas
Fixed: Mole fraction of 1-heptyne = 0
Property: Activity coefficient of 1-heptyne (Liquid); method: Chromatography
Temperature, K	Activity coefficient of 1-heptyne	uncertainty
323.15	27.58	.8274
333.15	26.22	.7866
343.15	26.12	.7836

System: 3,3'-[propane-1,3-diylbis(oxymethanediyl)]bis(1-methyl-1H-imidazol-3-ium) bis(dicyanamide) + 2-butanone; phases: Liquid, Gas
Fixed: Mole fraction of 2-butanone = 0
Property: Activity coefficient of 2-butanone (Liquid); method: Chromatography
Temperature, K	Activity coefficient of 2-butanone	uncertainty
323.15	1.7	.051
333.15	1.56	.0468
343.15	1.44	.0432

System: 3,3'-[propane-1,3-diylbis(oxymethanediyl)]bis(1-methyl-1H-imidazol-3-ium) bis(dicyanamide) + 2-pentanone; phases: Liquid, Gas
Fixed: Mole fraction of 2-pentanone = 0
Property: Activity coefficient of 2-pentanone (Liquid); method: Chromatography
Temperature, K	Activity coefficient of 2-pentanone	uncertainty
323.15	3.5	.105
333.15	3.5	.105
343.15	3.49	.1047

System: 3,3'-[propane-1,3-diylbis(oxymethanediyl)]bis(1-methyl-1H-imidazol-3-ium) bis(dicyanamide) + 3-pentanone; phases: Liquid, Gas
Fixed: Mole fraction of 3-pentanone = 0
Property: Activity coefficient of 3-pentanone (Liquid); method: Chromatography
Temperature, K	Activity coefficient of 3-pentanone	uncertainty
323.15	3.39	.1017
333.15	3.49	.1047
343.15	3.46	.1038

System: 3,3'-[propane-1,3-diylbis(oxymethanediyl)]bis(1-methyl-1H-imidazol-3-ium) bis(dicyanamide) + 1,4-dioxane; phases: Liquid, Gas
Fixed: Mole fraction of 1,4-dioxane = 0
Property: Activity coefficient of 1,4-dioxane (Liquid); method: Chromatography
Temperature, K	Activity coefficient of 1,4-dioxane	uncertainty
323.15	1.09	.0327
333.15	1.11	.0333
343.15	1.13	.0339

System: 3,3'-[propane-1,3-diylbis(oxymethanediyl)]bis(1-methyl-1H-imidazol-3-ium) bis(dicyanamide) + methanol; phases: Liquid, Gas
Fixed: Mole fraction of methanol = 0
Property: Activity coefficient of methanol (Liquid); method: Chromatography
Temperature, K	Activity coefficient of methanol	uncertainty
323.15	.38	.0114
333.15	.38	.0114
343.15	.37	.0111

System: 3,3'-[propane-1,3-diylbis(oxymethanediyl)]bis(1-methyl-1H-imidazol-3-ium) bis(dicyanamide) + ethanol; phases: Liquid, Gas
Fixed: Mole fraction of ethanol = 0
Property: Activity coefficient of ethanol (Liquid); method: Chromatography
Temperature, K	Activity coefficient of ethanol	uncertainty
323.15	.78	.0234
333.15	.76	.0228
343.15	.72	.0216

System: 3,3'-[propane-1,3-diylbis(oxymethanediyl)]bis(1-methyl-1H-imidazol-3-ium) bis(dicyanamide) + 1-propanol; phases: Liquid, Gas
Fixed: Mole fraction of 1-propanol = 0
Property: Activity coefficient of 1-propanol (Liquid); method: Chromatography
Temperature, K	Activity coefficient of 1-propanol	uncertainty
323.15	1.22	.0366
333.15	1.17	.0351
343.15	1.1	.033

System: 3,3'-[propane-1,3-diylbis(oxymethanediyl)]bis(1-methyl-1H-imidazol-3-ium) bis(dicyanamide) + 2-propanol; phases: Liquid, Gas
Fixed: Mole fraction of 2-propanol = 0
Property: Activity coefficient of 2-propanol (Liquid); method: Chromatography
Temperature, K	Activity coefficient of 2-propanol	uncertainty
323.15	1.39	.0417
333.15	1.32	.0396
343.15	1.26	.0378

System: 3,3'-[propane-1,3-diylbis(oxymethanediyl)]bis(1-methyl-1H-imidazol-3-ium) bis(dicyanamide) + 2-methyl-1-propanol; phases: Liquid, Gas
Fixed: Mole fraction of 2-methyl-1-propanol = 0
Property: Activity coefficient of 2-methyl-1-propanol (Liquid); method: Chromatography
Temperature, K	Activity coefficient of 2-methyl-1-propanol	uncertainty
323.15	1.94	.0582
333.15	1.81	.0543
343.15	1.73	.0519

System: 3,3'-[propane-1,3-diylbis(oxymethanediyl)]bis(1-methyl-1H-imidazol-3-ium) bis(dicyanamide) + 1-butanol; phases: Liquid, Gas
Fixed: Mole fraction of 1-butanol = 0
Property: Activity coefficient of 1-butanol (Liquid); method: Chromatography
Temperature, K	Activity coefficient of 1-butanol	uncertainty
323.15	2.21	.0663
333.15	1.9	.057
343.15	1.79	.0537

System: 3,3'-[propane-1,3-diylbis(oxymethanediyl)]bis(1-methyl-1H-imidazol-3-ium) bis(dicyanamide) + chloroform; phases: Liquid, Gas
Fixed: Mole fraction of chloroform = 0
Property: Activity coefficient of chloroform (Liquid); method: Chromatography
Temperature, K	Activity coefficient of chloroform	uncertainty
323.15	1.02	.0306
333.15	1.08	.0324
343.15	1.14	.0342

System: 3,3'-[propane-1,3-diylbis(oxymethanediyl)]bis(1-methyl-1H-imidazol-3-ium) bis(dicyanamide) + dichloromethane; phases: Liquid, Gas
Fixed: Mole fraction of dichloromethane = 0
Property: Activity coefficient of dichloromethane (Liquid); method: Chromatography
Temperature, K	Activity coefficient of dichloromethane	uncertainty
323.15	.73	.0219
333.15	.8	.024
343.15	.86	.0258

System: 3,3'-[propane-1,3-diylbis(oxymethanediyl)]bis(1-methyl-1H-imidazol-3-ium) bis(dicyanamide) + tetrachloromethane; phases: Liquid, Gas
Fixed: Mole fraction of tetrachloromethane = 0
Property: Activity coefficient of tetrachloromethane (Liquid); method: Chromatography
Temperature, K	Activity coefficient of tetrachloromethane	uncertainty
323.15	6.68	.2004
333.15	6.94	.2082
343.15	7	.21

System: 3,3'-[propane-1,3-diylbis(oxymethanediyl)]bis(1-methyl-1H-imidazol-3-ium) bis(dicyanamide) + acetonitrile; phases: Liquid, Gas
Fixed: Mole fraction of acetonitrile = 0
Property: Activity coefficient of acetonitrile (Liquid); method: Chromatography
Temperature, K	Activity coefficient of acetonitrile	uncertainty
323.15	.68	.0204
333.15	.68	.0204
343.15	.69	.0207

System: 3,3'-[propane-1,3-diylbis(oxymethanediyl)]bis(1-methyl-1H-imidazol-3-ium) bis(dicyanamide) + nitromethane; phases: Liquid, Gas
Fixed: Mole fraction of nitromethane = 0
Property: Activity coefficient of nitromethane (Liquid); method: Chromatography
Temperature, K	Activity coefficient of nitromethane	uncertainty
323.15	.56	.0168
333.15	.56	.0168
343.15	.57	.0171

System: 3,3'-[propane-1,3-diylbis(oxymethanediyl)]bis(1-methyl-1H-imidazol-3-ium) bis(dicyanamide) + triethylamine; phases: Liquid, Gas
Fixed: Mole fraction of triethylamine = 0
Property: Activity coefficient of triethylamine (Liquid); method: Chromatography
Temperature, K	Activity coefficient of triethylamine	uncertainty
323.15	54.6	1.638
333.15	52.47	1.5741
343.15	50.49	1.5147

System: 3,3'-[propane-1,3-diylbis(oxymethanediyl)]bis(1-methyl-1H-imidazol-3-ium) bis(dicyanamide) + pyridine; phases: Liquid, Gas
Fixed: Mole fraction of pyridine = 0
Property: Activity coefficient of pyridine (Liquid); method: Chromatography
Temperature, K	Activity coefficient of pyridine	uncertainty
323.15	1	.03
333.15	1.01	.0303
343.15	1.04	.0312

System: 3,3'-[propane-1,3-diylbis(oxymethanediyl)]bis(1-methyl-1H-imidazol-3-ium) bis(dicyanamide) + thiophene; phases: Liquid, Gas
Fixed: Mole fraction of thiophene = 0
Property: Activity coefficient of thiophene (Liquid); method: Chromatography
Temperature, K	Activity coefficient of thiophene	uncertainty
323.15	1.58	.0474
333.15	1.63	.0489
343.15	1.68	.0504

System: 3,3'-[propane-1,3-diylbis(oxymethanediyl)]bis(2-methyl-1-octyl-1H-imidazol-3-ium) bis{bis[(trifluoromethyl)sulfonyl]imide} + hexane; phases: Liquid, Gas
Fixed: Mole fraction of hexane = 0
Property: Activity coefficient of hexane (Liquid); method: Chromatography
Temperature, K	Activity coefficient of hexane	uncertainty
323.15	3.74	.1122
333.15	3.59	.1077
343.15	3.45	.1035

System: 3,3'-[propane-1,3-diylbis(oxymethanediyl)]bis(2-methyl-1-octyl-1H-imidazol-3-ium) bis{bis[(trifluoromethyl)sulfonyl]imide} + 3-methylpentane; phases: Liquid, Gas
Fixed: Mole fraction of 3-methylpentane = 0
Property: Activity coefficient of 3-methylpentane (Liquid); method: Chromatography
Temperature, K	Activity coefficient of 3-methylpentane	uncertainty
323.15	3.59	.1077
333.15	3.36	.1008
343.15	3.13	.0939

System: 3,3'-[propane-1,3-diylbis(oxymethanediyl)]bis(2-methyl-1-octyl-1H-imidazol-3-ium) bis{bis[(trifluoromethyl)sulfonyl]imide} + heptane; phases: Liquid, Gas
Fixed: Mole fraction of heptane = 0
Property: Activity coefficient of heptane (Liquid); method: Chromatography
Temperature, K	Activity coefficient of heptane	uncertainty
323.15	4.67	.1401
333.15	4.51	.1353
343.15	4.49	.1347

System: 3,3'-[propane-1,3-diylbis(oxymethanediyl)]bis(2-methyl-1-octyl-1H-imidazol-3-ium) bis{bis[(trifluoromethyl)sulfonyl]imide} + octane; phases: Liquid, Gas
Fixed: Mole fraction of octane = 0
Property: Activity coefficient of octane (Liquid); method: Chromatography
Temperature, K	Activity coefficient of octane	uncertainty
323.15	5.97	.1791
333.15	5.45	.1635
343.15	5.08	.1524

System: 3,3'-[propane-1,3-diylbis(oxymethanediyl)]bis(2-methyl-1-octyl-1H-imidazol-3-ium) bis{bis[(trifluoromethyl)sulfonyl]imide} + nonane; phases: Liquid, Gas
Fixed: Mole fraction of nonane = 0
Property: Activity coefficient of nonane (Liquid); method: Chromatography
Temperature, K	Activity coefficient of nonane	uncertainty
323.15	8.26	.2478
333.15	7.45	.2235
343.15	7.1	.213

System: 3,3'-[propane-1,3-diylbis(oxymethanediyl)]bis(2-methyl-1-octyl-1H-imidazol-3-ium) bis{bis[(trifluoromethyl)sulfonyl]imide} + decane; phases: Liquid, Gas
Fixed: Mole fraction of decane = 0
Property: Activity coefficient of decane (Liquid); method: Chromatography
Temperature, K	Activity coefficient of decane	uncertainty
323.15	9.63	.2889
333.15	8.73	.2619
343.15	8.35	.2505

System: 3,3'-[propane-1,3-diylbis(oxymethanediyl)]bis(2-methyl-1-octyl-1H-imidazol-3-ium) bis{bis[(trifluoromethyl)sulfonyl]imide} + undecane; phases: Liquid, Gas
Fixed: Mole fraction of undecane = 0
Property: Activity coefficient of undecane (Liquid); method: Chromatography
Temperature, K	Activity coefficient of undecane	uncertainty
323.15	12.42	.3726
333.15	11.13	.3339
343.15	10.58	.3174

System: 3,3'-[propane-1,3-diylbis(oxymethanediyl)]bis(2-methyl-1-octyl-1H-imidazol-3-ium) bis{bis[(trifluoromethyl)sulfonyl]imide} + dodecane; phases: Liquid, Gas
Fixed: Mole fraction of dodecane = 0
Property: Activity coefficient of dodecane (Liquid); method: Chromatography
Temperature, K	Activity coefficient of dodecane	uncertainty
323.15	15.38	.4614
333.15	13.94	.4182
343.15	13.07	.3921

System: 3,3'-[propane-1,3-diylbis(oxymethanediyl)]bis(2-methyl-1-octyl-1H-imidazol-3-ium) bis{bis[(trifluoromethyl)sulfonyl]imide} + methylcyclopentane; phases: Liquid, Gas
Fixed: Mole fraction of methylcyclopentane = 0
Property: Activity coefficient of methylcyclopentane (Liquid); method: Chromatography
Temperature, K	Activity coefficient of methylcyclopentane	uncertainty
323.15	2.52	.0756
333.15	2.23	.0669
343.15	2.17	.0651

System: 3,3'-[propane-1,3-diylbis(oxymethanediyl)]bis(2-methyl-1-octyl-1H-imidazol-3-ium) bis{bis[(trifluoromethyl)sulfonyl]imide} + cyclohexane; phases: Liquid, Gas
Fixed: Mole fraction of cyclohexane = 0
Property: Activity coefficient of cyclohexane (Liquid); method: Chromatography
Temperature, K	Activity coefficient of cyclohexane	uncertainty
323.15	2.41	.0723
333.15	2.22	.0666
343.15	2.11	.0633

System: 3,3'-[propane-1,3-diylbis(oxymethanediyl)]bis(2-methyl-1-octyl-1H-imidazol-3-ium) bis{bis[(trifluoromethyl)sulfonyl]imide} + methylcyclohexane; phases: Liquid, Glass
Fixed: Mole fraction of methylcyclohexane = 0
Property: Activity coefficient of methylcyclohexane (Liquid); method: Chromatography
Temperature, K	Activity coefficient of methylcyclohexane	uncertainty
323.15	2.94	.0882
333.15	2.71	.0813
343.15	2.73	.0819

System: 3,3'-[propane-1,3-diylbis(oxymethanediyl)]bis(2-methyl-1-octyl-1H-imidazol-3-ium) bis{bis[(trifluoromethyl)sulfonyl]imide} + cycloheptane; phases: Liquid, Gas
Fixed: Mole fraction of cycloheptane = 0
Property: Activity coefficient of cycloheptane (Liquid); method: Chromatography
Temperature, K	Activity coefficient of cycloheptane	uncertainty
323.15	5.84	.1752
333.15	7.77	.2331
343.15	10.23	.3069

System: 3,3'-[propane-1,3-diylbis(oxymethanediyl)]bis(2-methyl-1-octyl-1H-imidazol-3-ium) bis{bis[(trifluoromethyl)sulfonyl]imide} + benzene; phases: Liquid, Gas
Fixed: Mole fraction of benzene = 0
Property: Activity coefficient of benzene (Liquid); method: Chromatography
Temperature, K	Activity coefficient of benzene	uncertainty
323.15	.42	.0126
333.15	.41	.0123
343.15	.41	.0123

System: 3,3'-[propane-1,3-diylbis(oxymethanediyl)]bis(2-methyl-1-octyl-1H-imidazol-3-ium) bis{bis[(trifluoromethyl)sulfonyl]imide} + toluene; phases: Liquid, Gas
Fixed: Mole fraction of toluene = 0
Property: Activity coefficient of toluene (Liquid); method: Chromatography
Temperature, K	Activity coefficient of toluene	uncertainty
323.15	.54	.0162
333.15	.53	.0159
343.15	.54	.0162

System: 3,3'-[propane-1,3-diylbis(oxymethanediyl)]bis(2-methyl-1-octyl-1H-imidazol-3-ium) bis{bis[(trifluoromethyl)sulfonyl]imide} + ethylbenzene; phases: Liquid, Gas
Fixed: Mole fraction of ethylbenzene = 0
Property: Activity coefficient of ethylbenzene (Liquid); method: Chromatography
Temperature, K	Activity coefficient of ethylbenzene	uncertainty
323.15	.75	.0225
333.15	.73	.0219
343.15	.74	.0222

System: 3,3'-[propane-1,3-diylbis(oxymethanediyl)]bis(2-methyl-1-octyl-1H-imidazol-3-ium) bis{bis[(trifluoromethyl)sulfonyl]imide} + m-xylene; phases: Liquid, Gas
Fixed: Mole fraction of m-xylene = 0
Property: Activity coefficient of m-xylene (Liquid); method: Chromatography
Temperature, K	Activity coefficient of m-xylene	uncertainty
323.15	.75	.0225
333.15	.72	.0216
343.15	.74	.0222

System: 3,3'-[propane-1,3-diylbis(oxymethanediyl)]bis(2-methyl-1-octyl-1H-imidazol-3-ium) bis{bis[(trifluoromethyl)sulfonyl]imide} + p-xylene; phases: Liquid, Gas
Fixed: Mole fraction of p-xylene = 0
Property: Activity coefficient of p-xylene (Liquid); method: Chromatography
Temperature, K	Activity coefficient of p-xylene	uncertainty
323.15	.75	.0225
333.15	.73	.0219
343.15	.73	.0219

System: 3,3'-[propane-1,3-diylbis(oxymethanediyl)]bis(2-methyl-1-octyl-1H-imidazol-3-ium) bis{bis[(trifluoromethyl)sulfonyl]imide} + o-xylene; phases: Liquid, Gas
Fixed: Mole fraction of o-xylene = 0
Property: Activity coefficient of o-xylene (Liquid); method: Chromatography
Temperature, K	Activity coefficient of o-xylene	uncertainty
323.15	.68	.0204
333.15	.66	.0198
343.15	.66	.0198

System: 3,3'-[propane-1,3-diylbis(oxymethanediyl)]bis(2-methyl-1-octyl-1H-imidazol-3-ium) bis{bis[(trifluoromethyl)sulfonyl]imide} + 1-hexene; phases: Liquid, Gas
Fixed: Mole fraction of 1-hexene = 0
Property: Activity coefficient of 1-hexene (Liquid); method: Chromatography
Temperature, K	Activity coefficient of 1-hexene	uncertainty
323.15	2.33	.0699
333.15	2.51	.0753
343.15	2.35	.0705

System: 3,3'-[propane-1,3-diylbis(oxymethanediyl)]bis(2-methyl-1-octyl-1H-imidazol-3-ium) bis{bis[(trifluoromethyl)sulfonyl]imide} + 1-hexyne; phases: Liquid, Gas
Fixed: Mole fraction of 1-hexyne = 0
Property: Activity coefficient of 1-hexyne (Liquid); method: Chromatography
Temperature, K	Activity coefficient of 1-hexyne	uncertainty
323.15	1.13	.0339
333.15	1.13	.0339
343.15	1.14	.0342

System: 3,3'-[propane-1,3-diylbis(oxymethanediyl)]bis(2-methyl-1-octyl-1H-imidazol-3-ium) bis{bis[(trifluoromethyl)sulfonyl]imide} + 1-heptyne; phases: Liquid, Gas
Fixed: Mole fraction of 1-heptyne = 0
Property: Activity coefficient of 1-heptyne (Liquid); method: Chromatography
Temperature, K	Activity coefficient of 1-heptyne	uncertainty
323.15	1.4	.042
333.15	1.4	.042
343.15	1.41	.0423

System: 3,3'-[propane-1,3-diylbis(oxymethanediyl)]bis(2-methyl-1-octyl-1H-imidazol-3-ium) bis{bis[(trifluoromethyl)sulfonyl]imide} + 2-butanone; phases: Liquid, Gas
Fixed: Mole fraction of 2-butanone = 0
Property: Activity coefficient of 2-butanone (Liquid); method: Chromatography
Temperature, K	Activity coefficient of 2-butanone	uncertainty
323.15	.21	.0063
333.15	.19	.0057
343.15	.18	.0054

System: 3,3'-[propane-1,3-diylbis(oxymethanediyl)]bis(2-methyl-1-octyl-1H-imidazol-3-ium) bis{bis[(trifluoromethyl)sulfonyl]imide} + 2-pentanone; phases: Liquid, Gas
Fixed: Mole fraction of 2-pentanone = 0
Property: Activity coefficient of 2-pentanone (Liquid); method: Chromatography
Temperature, K	Activity coefficient of 2-pentanone	uncertainty
323.15	.29	.0087
333.15	.29	.0087
343.15	.3	.009

System: 3,3'-[propane-1,3-diylbis(oxymethanediyl)]bis(2-methyl-1-octyl-1H-imidazol-3-ium) bis{bis[(trifluoromethyl)sulfonyl]imide} + 3-pentanone; phases: Liquid, Gas
Fixed: Mole fraction of 3-pentanone = 0
Property: Activity coefficient of 3-pentanone (Liquid); method: Chromatography
Temperature, K	Activity coefficient of 3-pentanone	uncertainty
323.15	.28	.0084
333.15	.28	.0084
343.15	.29	.0087

System: 3,3'-[propane-1,3-diylbis(oxymethanediyl)]bis(2-methyl-1-octyl-1H-imidazol-3-ium) bis{bis[(trifluoromethyl)sulfonyl]imide} + 1,4-dioxane; phases: Liquid, Gas
Fixed: Mole fraction of 1,4-dioxane = 0
Property: Activity coefficient of 1,4-dioxane (Liquid); method: Chromatography
Temperature, K	Activity coefficient of 1,4-dioxane	uncertainty
323.15	.28	.0084
333.15	.27	.0081
343.15	.28	.0084

System: 3,3'-[propane-1,3-diylbis(oxymethanediyl)]bis(2-methyl-1-octyl-1H-imidazol-3-ium) bis{bis[(trifluoromethyl)sulfonyl]imide} + methanol; phases: Liquid, Gas
Fixed: Mole fraction of methanol = 0
Property: Activity coefficient of methanol (Liquid); method: Chromatography
Temperature, K	Activity coefficient of methanol	uncertainty
323.15	.57	.0171
333.15	.51	.0153
343.15	.49	.0147

System: 3,3'-[propane-1,3-diylbis(oxymethanediyl)]bis(2-methyl-1-octyl-1H-imidazol-3-ium) bis{bis[(trifluoromethyl)sulfonyl]imide} + ethanol; phases: Liquid, Gas
Fixed: Mole fraction of ethanol = 0
Property: Activity coefficient of ethanol (Liquid); method: Chromatography
Temperature, K	Activity coefficient of ethanol	uncertainty
323.15	.64	.0192
333.15	.58	.0174
343.15	.55	.0165

System: 3,3'-[propane-1,3-diylbis(oxymethanediyl)]bis(2-methyl-1-octyl-1H-imidazol-3-ium) bis{bis[(trifluoromethyl)sulfonyl]imide} + 1-propanol; phases: Liquid, Gas
Fixed: Mole fraction of 1-propanol = 0
Property: Activity coefficient of 1-propanol (Liquid); method: Chromatography
Temperature, K	Activity coefficient of 1-propanol	uncertainty
323.15	.72	.0216
333.15	.65	.0195
343.15	.77	.0231

System: 3,3'-[propane-1,3-diylbis(oxymethanediyl)]bis(2-methyl-1-octyl-1H-imidazol-3-ium) bis{bis[(trifluoromethyl)sulfonyl]imide} + 2-propanol; phases: Liquid, Gas
Fixed: Mole fraction of 2-propanol = 0
Property: Activity coefficient of 2-propanol (Liquid); method: Chromatography
Temperature, K	Activity coefficient of 2-propanol	uncertainty
323.15	.68	.0204
333.15	.61	.0183
343.15	.56	.0168

System: 3,3'-[propane-1,3-diylbis(oxymethanediyl)]bis(2-methyl-1-octyl-1H-imidazol-3-ium) bis{bis[(trifluoromethyl)sulfonyl]imide} + 2-methyl-1-propanol; phases: Liquid, Gas
Fixed: Mole fraction of 2-methyl-1-propanol = 0
Property: Activity coefficient of 2-methyl-1-propanol (Liquid); method: Chromatography
Temperature, K	Activity coefficient of 2-methyl-1-propanol	uncertainty
323.15	.8	.024
333.15	.72	.0216
343.15	.67	.0201

System: 3,3'-[propane-1,3-diylbis(oxymethanediyl)]bis(2-methyl-1-octyl-1H-imidazol-3-ium) bis{bis[(trifluoromethyl)sulfonyl]imide} + 1-butanol; phases: Liquid, Gas
Fixed: Mole fraction of 1-butanol = 0
Property: Activity coefficient of 1-butanol (Liquid); method: Chromatography
Temperature, K	Activity coefficient of 1-butanol	uncertainty
323.15	.84	.0252
333.15	.74	.0222
343.15	.69	.0207

System: 3,3'-[propane-1,3-diylbis(oxymethanediyl)]bis(2-methyl-1-octyl-1H-imidazol-3-ium) bis{bis[(trifluoromethyl)sulfonyl]imide} + diethyl ether; phases: Liquid, Gas
Fixed: Mole fraction of diethyl ether = 0
Property: Activity coefficient of diethyl ether (Liquid); method: Chromatography
Temperature, K	Activity coefficient of diethyl ether	uncertainty
323.15	.86	.0258
333.15	.88	.0264
343.15	.92	.0276

System: 3,3'-[propane-1,3-diylbis(oxymethanediyl)]bis(2-methyl-1-octyl-1H-imidazol-3-ium) bis{bis[(trifluoromethyl)sulfonyl]imide} + diisopropyl ether; phases: Liquid, Gas
Fixed: Mole fraction of diisopropyl ether = 0
Property: Activity coefficient of diisopropyl ether (Liquid); method: Chromatography
Temperature, K	Activity coefficient of diisopropyl ether	uncertainty
323.15	1.54	.0462
333.15	1.56	.0468
343.15	1.54	.0462

System: 3,3'-[propane-1,3-diylbis(oxymethanediyl)]bis(2-methyl-1-octyl-1H-imidazol-3-ium) bis{bis[(trifluoromethyl)sulfonyl]imide} + chloroform; phases: Liquid, Gas
Fixed: Mole fraction of chloroform = 0
Property: Activity coefficient of chloroform (Liquid); method: Chromatography
Temperature, K	Activity coefficient of chloroform	uncertainty
323.15	.39	.0117
333.15	.38	.0114
343.15	.39	.0117

System: 3,3'-[propane-1,3-diylbis(oxymethanediyl)]bis(2-methyl-1-octyl-1H-imidazol-3-ium) bis{bis[(trifluoromethyl)sulfonyl]imide} + dichloromethane; phases: Liquid, Gas
Fixed: Mole fraction of dichloromethane = 0
Property: Activity coefficient of dichloromethane (Liquid); method: Chromatography
Temperature, K	Activity coefficient of dichloromethane	uncertainty
323.15	.3	.009
333.15	.3	.009
343.15	.32	.0096

System: 3,3'-[propane-1,3-diylbis(oxymethanediyl)]bis(2-methyl-1-octyl-1H-imidazol-3-ium) bis{bis[(trifluoromethyl)sulfonyl]imide} + tetrachloromethane; phases: Liquid, Gas
Fixed: Mole fraction of tetrachloromethane = 0
Property: Activity coefficient of tetrachloromethane (Liquid); method: Chromatography
Temperature, K	Activity coefficient of tetrachloromethane	uncertainty
323.15	.99	.0297
333.15	.92	.0276
343.15	1.02	.0306

System: 3,3'-[propane-1,3-diylbis(oxymethanediyl)]bis(2-methyl-1-octyl-1H-imidazol-3-ium) bis{bis[(trifluoromethyl)sulfonyl]imide} + acetonitrile; phases: Liquid, Gas
Fixed: Mole fraction of acetonitrile = 0
Property: Activity coefficient of acetonitrile (Liquid); method: Chromatography
Temperature, K	Activity coefficient of acetonitrile	uncertainty
323.15	.26	.0078
333.15	.25	.0075
343.15	.25	.0075

System: 3,3'-[propane-1,3-diylbis(oxymethanediyl)]bis(2-methyl-1-octyl-1H-imidazol-3-ium) bis{bis[(trifluoromethyl)sulfonyl]imide} + nitromethane; phases: Liquid, Gas
Fixed: Mole fraction of nitromethane = 0
Property: Activity coefficient of nitromethane (Liquid); method: Chromatography
Temperature, K	Activity coefficient of nitromethane	uncertainty
323.15	.31	.0093
333.15	.29	.0087
343.15	.47	.0141

System: 3,3'-[propane-1,3-diylbis(oxymethanediyl)]bis(2-methyl-1-octyl-1H-imidazol-3-ium) bis{bis[(trifluoromethyl)sulfonyl]imide} + 1-nitropropane; phases: Liquid, Gas
Fixed: Mole fraction of 1-nitropropane = 0
Property: Activity coefficient of 1-nitropropane (Liquid); method: Chromatography
Temperature, K	Activity coefficient of 1-nitropropane	uncertainty
323.15	.34	.0102
333.15	.33	.0099
343.15	.32	.0096

System: 3,3'-[propane-1,3-diylbis(oxymethanediyl)]bis(2-methyl-1-octyl-1H-imidazol-3-ium) bis{bis[(trifluoromethyl)sulfonyl]imide} + pyridine; phases: Liquid, Gas
Fixed: Mole fraction of pyridine = 0
Property: Activity coefficient of pyridine (Liquid); method: Chromatography
Temperature, K	Activity coefficient of pyridine	uncertainty
323.15	.13	.0039
333.15	.14	.0042
343.15	.15	.0045

System: 3,3'-[propane-1,3-diylbis(oxymethanediyl)]bis(2-methyl-1-octyl-1H-imidazol-3-ium) bis{bis[(trifluoromethyl)sulfonyl]imide} + thiophene; phases: Liquid, Gas
Fixed: Mole fraction of thiophene = 0
Property: Activity coefficient of thiophene (Liquid); method: Chromatography
Temperature, K	Activity coefficient of thiophene	uncertainty
323.15	.38	.0114
333.15	.37	.0111
343.15	.38	.0114

System: 3,3'-[propane-1,3-diylbis(oxymethanediyl)]bis(2-methyl-1-octyl-1H-imidazol-3-ium) ditetrafluoroborate + heptane; phases: Liquid, Gas
Fixed: Mole fraction of heptane = 0
Property: Activity coefficient of heptane (Liquid); method: Chromatography
Temperature, K	Activity coefficient of heptane	uncertainty
323.15	10.53	.3159
333.15	9.2	.276
343.15	10.22	.3066

System: 3,3'-[propane-1,3-diylbis(oxymethanediyl)]bis(2-methyl-1-octyl-1H-imidazol-3-ium) ditetrafluoroborate + octane; phases: Liquid, Gas
Fixed: Mole fraction of octane = 0
Property: Activity coefficient of octane (Liquid); method: Chromatography
Temperature, K	Activity coefficient of octane	uncertainty
323.15	13.07	.3921
333.15	12.07	.3621
343.15	11.81	.3543

System: 3,3'-[propane-1,3-diylbis(oxymethanediyl)]bis(2-methyl-1-octyl-1H-imidazol-3-ium) ditetrafluoroborate + nonane; phases: Liquid, Gas
Fixed: Mole fraction of nonane = 0
Property: Activity coefficient of nonane (Liquid); method: Chromatography
Temperature, K	Activity coefficient of nonane	uncertainty
323.15	18.15	.5445
333.15	16.81	.5043
343.15	15.73	.4719

System: 3,3'-[propane-1,3-diylbis(oxymethanediyl)]bis(2-methyl-1-octyl-1H-imidazol-3-ium) ditetrafluoroborate + decane; phases: Liquid, Gas
Fixed: Mole fraction of decane = 0
Property: Activity coefficient of decane (Liquid); method: Chromatography
Temperature, K	Activity coefficient of decane	uncertainty
323.15	20.55	.6165
333.15	19.57	.5871
343.15	18.58	.5574

System: 3,3'-[propane-1,3-diylbis(oxymethanediyl)]bis(2-methyl-1-octyl-1H-imidazol-3-ium) ditetrafluoroborate + undecane; phases: Liquid, Gas
Fixed: Mole fraction of undecane = 0
Property: Activity coefficient of undecane (Liquid); method: Chromatography
Temperature, K	Activity coefficient of undecane	uncertainty
323.15	25.87	.7761
333.15	24.98	.7494
343.15	23.81	.7143

System: 3,3'-[propane-1,3-diylbis(oxymethanediyl)]bis(2-methyl-1-octyl-1H-imidazol-3-ium) ditetrafluoroborate + dodecane; phases: Liquid, Gas
Fixed: Mole fraction of dodecane = 0
Property: Activity coefficient of dodecane (Liquid); method: Chromatography
Temperature, K	Activity coefficient of dodecane	uncertainty
323.15	31.41	.9423
333.15	31.17	.9351
343.15	29.65	.8895

System: 3,3'-[propane-1,3-diylbis(oxymethanediyl)]bis(2-methyl-1-octyl-1H-imidazol-3-ium) ditetrafluoroborate + methylcyclopentane; phases: Liquid, Gas
Fixed: Mole fraction of methylcyclopentane = 0
Property: Activity coefficient of methylcyclopentane (Liquid); method: Chromatography
Temperature, K	Activity coefficient of methylcyclopentane	uncertainty
323.15	5.58	.1674
333.15	2.08	.0624
343.15	4.62	.1386

System: 3,3'-[propane-1,3-diylbis(oxymethanediyl)]bis(2-methyl-1-octyl-1H-imidazol-3-ium) ditetrafluoroborate + cyclohexane; phases: Liquid, Gas
Fixed: Mole fraction of cyclohexane = 0
Property: Activity coefficient of cyclohexane (Liquid); method: Chromatography
Temperature, K	Activity coefficient of cyclohexane	uncertainty
323.15	5.39	.1617
333.15	4.92	.1476
343.15	4.71	.1413

System: 3,3'-[propane-1,3-diylbis(oxymethanediyl)]bis(2-methyl-1-octyl-1H-imidazol-3-ium) ditetrafluoroborate + methylcyclohexane; phases: Liquid, Glass
Fixed: Mole fraction of methylcyclohexane = 0
Property: Activity coefficient of methylcyclohexane (Liquid); method: Chromatography
Temperature, K	Activity coefficient of methylcyclohexane	uncertainty
323.15	6.66	.1998
333.15	6.41	.1923
343.15	6.1	.183

System: 3,3'-[propane-1,3-diylbis(oxymethanediyl)]bis(2-methyl-1-octyl-1H-imidazol-3-ium) ditetrafluoroborate + cycloheptane; phases: Liquid, Gas
Fixed: Mole fraction of cycloheptane = 0
Property: Activity coefficient of cycloheptane (Liquid); method: Chromatography
Temperature, K	Activity coefficient of cycloheptane	uncertainty
323.15	12.23	.3669
333.15	16.56	.4968
343.15	21.89	.6567

System: 3,3'-[propane-1,3-diylbis(oxymethanediyl)]bis(2-methyl-1-octyl-1H-imidazol-3-ium) ditetrafluoroborate + benzene; phases: Liquid, Gas
Fixed: Mole fraction of benzene = 0
Property: Activity coefficient of benzene (Liquid); method: Chromatography
Temperature, K	Activity coefficient of benzene	uncertainty
323.15	.78	.0234
333.15	.79	.0237
343.15	.78	.0234

System: 3,3'-[propane-1,3-diylbis(oxymethanediyl)]bis(2-methyl-1-octyl-1H-imidazol-3-ium) ditetrafluoroborate + toluene; phases: Liquid, Gas
Fixed: Mole fraction of toluene = 0
Property: Activity coefficient of toluene (Liquid); method: Chromatography
Temperature, K	Activity coefficient of toluene	uncertainty
323.15	1.08	.0324
333.15	1.09	.0327
343.15	1.13	.0339

System: 3,3'-[propane-1,3-diylbis(oxymethanediyl)]bis(2-methyl-1-octyl-1H-imidazol-3-ium) ditetrafluoroborate + ethylbenzene; phases: Liquid, Gas
Fixed: Mole fraction of ethylbenzene = 0
Property: Activity coefficient of ethylbenzene (Liquid); method: Chromatography
Temperature, K	Activity coefficient of ethylbenzene	uncertainty
323.15	1.58	.0474
333.15	1.58	.0474
343.15	1.59	.0477

System: 3,3'-[propane-1,3-diylbis(oxymethanediyl)]bis(2-methyl-1-octyl-1H-imidazol-3-ium) ditetrafluoroborate + m-xylene; phases: Liquid, Gas
Fixed: Mole fraction of m-xylene = 0
Property: Activity coefficient of m-xylene (Liquid); method: Chromatography
Temperature, K	Activity coefficient of m-xylene	uncertainty
323.15	1.59	.0477
333.15	1.59	.0477
343.15	1.6	.048

System: 3,3'-[propane-1,3-diylbis(oxymethanediyl)]bis(2-methyl-1-octyl-1H-imidazol-3-ium) ditetrafluoroborate + p-xylene; phases: Liquid, Gas
Fixed: Mole fraction of p-xylene = 0
Property: Activity coefficient of p-xylene (Liquid); method: Chromatography
Temperature, K	Activity coefficient of p-xylene	uncertainty
323.15	1.57	.0471
333.15	1.56	.0468
343.15	1.57	.0471

System: 3,3'-[propane-1,3-diylbis(oxymethanediyl)]bis(2-methyl-1-octyl-1H-imidazol-3-ium) ditetrafluoroborate + o-xylene; phases: Liquid, Gas
Fixed: Mole fraction of o-xylene = 0
Property: Activity coefficient of o-xylene (Liquid); method: Chromatography
Temperature, K	Activity coefficient of o-xylene	uncertainty
323.15	1.39	.0417
333.15	1.39	.0417
343.15	1.42	.0426

System: 3,3'-[propane-1,3-diylbis(oxymethanediyl)]bis(2-methyl-1-octyl-1H-imidazol-3-ium) ditetrafluoroborate + 1-hexene; phases: Liquid, Gas
Fixed: Mole fraction of 1-hexene = 0
Property: Activity coefficient of 1-hexene (Liquid); method: Chromatography
Temperature, K	Activity coefficient of 1-hexene	uncertainty
323.15	5.39	.1617
333.15	4.74	.1422
343.15	4.84	.1452

System: 3,3'-[propane-1,3-diylbis(oxymethanediyl)]bis(2-methyl-1-octyl-1H-imidazol-3-ium) ditetrafluoroborate + 1-hexyne; phases: Liquid, Gas
Fixed: Mole fraction of 1-hexyne = 0
Property: Activity coefficient of 1-hexyne (Liquid); method: Chromatography
Temperature, K	Activity coefficient of 1-hexyne	uncertainty
323.15	1.79	.0537
333.15	1.61	.0483
343.15	2.16	.0648

System: 3,3'-[propane-1,3-diylbis(oxymethanediyl)]bis(2-methyl-1-octyl-1H-imidazol-3-ium) ditetrafluoroborate + 1-heptyne; phases: Liquid, Gas
Fixed: Mole fraction of 1-heptyne = 0
Property: Activity coefficient of 1-heptyne (Liquid); method: Chromatography
Temperature, K	Activity coefficient of 1-heptyne	uncertainty
323.15	2.27	.0681
333.15	2.25	.0675
343.15	5.15	.1545

System: 3,3'-[propane-1,3-diylbis(oxymethanediyl)]bis(2-methyl-1-octyl-1H-imidazol-3-ium) ditetrafluoroborate + 2-butanone; phases: Liquid, Gas
Fixed: Mole fraction of 2-butanone = 0
Property: Activity coefficient of 2-butanone (Liquid); method: Chromatography
Temperature, K	Activity coefficient of 2-butanone	uncertainty
323.15	.58	.0174
333.15	.53	.0159
343.15	.9	.027

System: 3,3'-[propane-1,3-diylbis(oxymethanediyl)]bis(2-methyl-1-octyl-1H-imidazol-3-ium) ditetrafluoroborate + 2-pentanone; phases: Liquid, Gas
Fixed: Mole fraction of 2-pentanone = 0
Property: Activity coefficient of 2-pentanone (Liquid); method: Chromatography
Temperature, K	Activity coefficient of 2-pentanone	uncertainty
323.15	.87	.0261
333.15	.86	.0258
343.15	.87	.0261

System: 3,3'-[propane-1,3-diylbis(oxymethanediyl)]bis(2-methyl-1-octyl-1H-imidazol-3-ium) ditetrafluoroborate + 3-pentanone; phases: Liquid, Gas
Fixed: Mole fraction of 3-pentanone = 0
Property: Activity coefficient of 3-pentanone (Liquid); method: Chromatography
Temperature, K	Activity coefficient of 3-pentanone	uncertainty
323.15	.86	.0258
333.15	.85	.0255
343.15	.87	.0261

System: 3,3'-[propane-1,3-diylbis(oxymethanediyl)]bis(2-methyl-1-octyl-1H-imidazol-3-ium) ditetrafluoroborate + 1,4-dioxane; phases: Liquid, Gas
Fixed: Mole fraction of 1,4-dioxane = 0
Property: Activity coefficient of 1,4-dioxane (Liquid); method: Chromatography
Temperature, K	Activity coefficient of 1,4-dioxane	uncertainty
323.15	.58	.0174
333.15	.58	.0174
343.15	.58	.0174

System: 3,3'-[propane-1,3-diylbis(oxymethanediyl)]bis(2-methyl-1-octyl-1H-imidazol-3-ium) ditetrafluoroborate + methanol; phases: Liquid, Gas
Fixed: Mole fraction of methanol = 0
Property: Activity coefficient of methanol (Liquid); method: Chromatography
Temperature, K	Activity coefficient of methanol	uncertainty
323.15	.56	.0168
333.15	.5	.015
343.15	.45	.0135

System: 3,3'-[propane-1,3-diylbis(oxymethanediyl)]bis(2-methyl-1-octyl-1H-imidazol-3-ium) ditetrafluoroborate + ethanol; phases: Liquid, Gas
Fixed: Mole fraction of ethanol = 0
Property: Activity coefficient of ethanol (Liquid); method: Chromatography
Temperature, K	Activity coefficient of ethanol	uncertainty
323.15	.76	.0228
333.15	.68	.0204
343.15	.62	.0186

System: 3,3'-[propane-1,3-diylbis(oxymethanediyl)]bis(2-methyl-1-octyl-1H-imidazol-3-ium) ditetrafluoroborate + 1-propanol; phases: Liquid, Gas
Fixed: Mole fraction of 1-propanol = 0
Property: Activity coefficient of 1-propanol (Liquid); method: Chromatography
Temperature, K	Activity coefficient of 1-propanol	uncertainty
323.15	.89	.0267
333.15	.82	.0246
343.15	.74	.0222

System: 3,3'-[propane-1,3-diylbis(oxymethanediyl)]bis(2-methyl-1-octyl-1H-imidazol-3-ium) ditetrafluoroborate + 2-propanol; phases: Liquid, Gas
Fixed: Mole fraction of 2-propanol = 0
Property: Activity coefficient of 2-propanol (Liquid); method: Chromatography
Temperature, K	Activity coefficient of 2-propanol	uncertainty
323.15	.92	.0276
333.15	.83	.0249
343.15	.77	.0231

System: 3,3'-[propane-1,3-diylbis(oxymethanediyl)]bis(2-methyl-1-octyl-1H-imidazol-3-ium) ditetrafluoroborate + 2-methyl-1-propanol; phases: Liquid, Gas
Fixed: Mole fraction of 2-methyl-1-propanol = 0
Property: Activity coefficient of 2-methyl-1-propanol (Liquid); method: Chromatography
Temperature, K	Activity coefficient of 2-methyl-1-propanol	uncertainty
323.15	1.05	.0315
333.15	.93	.0279
343.15	.89	.0267

System: 3,3'-[propane-1,3-diylbis(oxymethanediyl)]bis(2-methyl-1-octyl-1H-imidazol-3-ium) ditetrafluoroborate + 1-butanol; phases: Liquid, Gas
Fixed: Mole fraction of 1-butanol = 0
Property: Activity coefficient of 1-butanol (Liquid); method: Chromatography
Temperature, K	Activity coefficient of 1-butanol	uncertainty
323.15	1.08	.0324
333.15	.96	.0288
343.15	.88	.0264

System: 3,3'-[propane-1,3-diylbis(oxymethanediyl)]bis(2-methyl-1-octyl-1H-imidazol-3-ium) ditetrafluoroborate + diethyl ether; phases: Liquid, Gas
Fixed: Mole fraction of diethyl ether = 0
Property: Activity coefficient of diethyl ether (Liquid); method: Chromatography
Temperature, K	Activity coefficient of diethyl ether	uncertainty
323.15	.94	.0282
333.15	3.06	.0918
343.15	.87	.0261

System: 3,3'-[propane-1,3-diylbis(oxymethanediyl)]bis(2-methyl-1-octyl-1H-imidazol-3-ium) ditetrafluoroborate + diisopropyl ether; phases: Liquid, Gas
Fixed: Mole fraction of diisopropyl ether = 0
Property: Activity coefficient of diisopropyl ether (Liquid); method: Chromatography
Temperature, K	Activity coefficient of diisopropyl ether	uncertainty
323.15	4.9	.147
333.15	19.69	.5907
343.15	2.12	.0636

System: 3,3'-[propane-1,3-diylbis(oxymethanediyl)]bis(2-methyl-1-octyl-1H-imidazol-3-ium) ditetrafluoroborate + chloroform; phases: Liquid, Gas
Fixed: Mole fraction of chloroform = 0
Property: Activity coefficient of chloroform (Liquid); method: Chromatography
Temperature, K	Activity coefficient of chloroform	uncertainty
323.15	.39	.0117
333.15	.41	.0123
343.15	.43	.0129

System: 3,3'-[propane-1,3-diylbis(oxymethanediyl)]bis(2-methyl-1-octyl-1H-imidazol-3-ium) ditetrafluoroborate + dichloromethane; phases: Liquid, Gas
Fixed: Mole fraction of dichloromethane = 0
Property: Activity coefficient of dichloromethane (Liquid); method: Chromatography
Temperature, K	Activity coefficient of dichloromethane	uncertainty
323.15	.33	.0099
333.15	.36	.0108
343.15	.36	.0108

System: 3,3'-[propane-1,3-diylbis(oxymethanediyl)]bis(2-methyl-1-octyl-1H-imidazol-3-ium) ditetrafluoroborate + tetrachloromethane; phases: Liquid, Gas
Fixed: Mole fraction of tetrachloromethane = 0
Property: Activity coefficient of tetrachloromethane (Liquid); method: Chromatography
Temperature, K	Activity coefficient of tetrachloromethane	uncertainty
323.15	1.63	.0489
333.15	1.59	.0477
343.15	2	.06

System: 3,3'-[propane-1,3-diylbis(oxymethanediyl)]bis(2-methyl-1-octyl-1H-imidazol-3-ium) ditetrafluoroborate + acetonitrile; phases: Liquid, Gas
Fixed: Mole fraction of acetonitrile = 0
Property: Activity coefficient of acetonitrile (Liquid); method: Chromatography
Temperature, K	Activity coefficient of acetonitrile	uncertainty
323.15	.38	.0114
333.15	.38	.0114
343.15	.38	.0114

System: 3,3'-[propane-1,3-diylbis(oxymethanediyl)]bis(2-methyl-1-octyl-1H-imidazol-3-ium) ditetrafluoroborate + nitromethane; phases: Liquid, Gas
Fixed: Mole fraction of nitromethane = 0
Property: Activity coefficient of nitromethane (Liquid); method: Chromatography
Temperature, K	Activity coefficient of nitromethane	uncertainty
323.15	.34	.0102
333.15	.34	.0102
343.15	.34	.0102

System: 3,3'-[propane-1,3-diylbis(oxymethanediyl)]bis(2-methyl-1-octyl-1H-imidazol-3-ium) ditetrafluoroborate + 1-nitropropane; phases: Liquid, Gas
Fixed: Mole fraction of 1-nitropropane = 0
Property: Activity coefficient of 1-nitropropane (Liquid); method: Chromatography
Temperature, K	Activity coefficient of 1-nitropropane	uncertainty
323.15	.57	.0171
333.15	.57	.0171
343.15	.57	.0171

System: 3,3'-[propane-1,3-diylbis(oxymethanediyl)]bis(2-methyl-1-octyl-1H-imidazol-3-ium) ditetrafluoroborate + pyridine; phases: Liquid, Gas
Fixed: Mole fraction of pyridine = 0
Property: Activity coefficient of pyridine (Liquid); method: Chromatography
Temperature, K	Activity coefficient of pyridine	uncertainty
323.15	.31	.0093
333.15	.31	.0093
343.15	.33	.0099

System: 3,3'-[propane-1,3-diylbis(oxymethanediyl)]bis(2-methyl-1-octyl-1H-imidazol-3-ium) ditetrafluoroborate + thiophene; phases: Liquid, Gas
Fixed: Mole fraction of thiophene = 0
Property: Activity coefficient of thiophene (Liquid); method: Chromatography
Temperature, K	Activity coefficient of thiophene	uncertainty
323.15	.57	.0171
333.15	.58	.0174
343.15	.59	.0177

System: 3,3'-[propane-1,3-diylbis(oxymethanediyl)]bis(2-methyl-1-octyl-1H-imidazol-3-ium) bis(dicyanamide) + hexane; phases: Liquid, Gas
Fixed: Mole fraction of hexane = 0
Property: Activity coefficient of hexane (Liquid); method: Chromatography
Temperature, K	Activity coefficient of hexane	uncertainty
323.15	8.9	.267

System: 3,3'-[propane-1,3-diylbis(oxymethanediyl)]bis(2-methyl-1-octyl-1H-imidazol-3-ium) bis(dicyanamide) + 3-methylpentane; phases: Liquid, Gas
Fixed: Mole fraction of 3-methylpentane = 0
Property: Activity coefficient of 3-methylpentane (Liquid); method: Chromatography
Temperature, K	Activity coefficient of 3-methylpentane	uncertainty
323.15	3.48	.1044

System: 3,3'-[propane-1,3-diylbis(oxymethanediyl)]bis(2-methyl-1-octyl-1H-imidazol-3-ium) bis(dicyanamide) + heptane; phases: Liquid, Gas
Fixed: Mole fraction of heptane = 0
Property: Activity coefficient of heptane (Liquid); method: Chromatography
Temperature, K	Activity coefficient of heptane	uncertainty
323.15	11.58	.3474
333.15	8.65	.2595
343.15	8.8	.264

System: 3,3'-[propane-1,3-diylbis(oxymethanediyl)]bis(2-methyl-1-octyl-1H-imidazol-3-ium) bis(dicyanamide) + octane; phases: Liquid, Gas
Fixed: Mole fraction of octane = 0
Property: Activity coefficient of octane (Liquid); method: Chromatography
Temperature, K	Activity coefficient of octane	uncertainty
323.15	12.07	.3621
333.15	11.44	.3432
343.15	11.28	.3384

System: 3,3'-[propane-1,3-diylbis(oxymethanediyl)]bis(2-methyl-1-octyl-1H-imidazol-3-ium) bis(dicyanamide) + nonane; phases: Liquid, Gas
Fixed: Mole fraction of nonane = 0
Property: Activity coefficient of nonane (Liquid); method: Chromatography
Temperature, K	Activity coefficient of nonane	uncertainty
323.15	17.15	.5145
333.15	15.85	.4755
343.15	14.34	.4302

System: 3,3'-[propane-1,3-diylbis(oxymethanediyl)]bis(2-methyl-1-octyl-1H-imidazol-3-ium) bis(dicyanamide) + decane; phases: Liquid, Gas
Fixed: Mole fraction of decane = 0
Property: Activity coefficient of decane (Liquid); method: Chromatography
Temperature, K	Activity coefficient of decane	uncertainty
323.15	19.53	.5859
333.15	19.5	.585
343.15	17.84	.5352

System: 3,3'-[propane-1,3-diylbis(oxymethanediyl)]bis(2-methyl-1-octyl-1H-imidazol-3-ium) bis(dicyanamide) + undecane; phases: Liquid, Gas
Fixed: Mole fraction of undecane = 0
Property: Activity coefficient of undecane (Liquid); method: Chromatography
Temperature, K	Activity coefficient of undecane	uncertainty
323.15	24.43	.7329
333.15	23.36	.7008
343.15	22.41	.6723

System: 3,3'-[propane-1,3-diylbis(oxymethanediyl)]bis(2-methyl-1-octyl-1H-imidazol-3-ium) bis(dicyanamide) + dodecane; phases: Liquid, Gas
Fixed: Mole fraction of dodecane = 0
Property: Activity coefficient of dodecane (Liquid); method: Chromatography
Temperature, K	Activity coefficient of dodecane	uncertainty
323.15	28.74	.8622
333.15	30.58	.9174
343.15	27.88	.8364

System: 3,3'-[propane-1,3-diylbis(oxymethanediyl)]bis(2-methyl-1-octyl-1H-imidazol-3-ium) bis(dicyanamide) + methylcyclopentane; phases: Liquid, Gas
Fixed: Mole fraction of methylcyclopentane = 0
Property: Activity coefficient of methylcyclopentane (Liquid); method: Chromatography
Temperature, K	Activity coefficient of methylcyclopentane	uncertainty
323.15	4.75	.1425
333.15	4.7	.141
343.15	4.63	.1389

System: 3,3'-[propane-1,3-diylbis(oxymethanediyl)]bis(2-methyl-1-octyl-1H-imidazol-3-ium) bis(dicyanamide) + cyclohexane; phases: Liquid, Gas
Fixed: Mole fraction of cyclohexane = 0
Property: Activity coefficient of cyclohexane (Liquid); method: Chromatography
Temperature, K	Activity coefficient of cyclohexane	uncertainty
323.15	4.29	.1287
333.15	3.86	.1158
343.15	3.71	.1113

System: 3,3'-[propane-1,3-diylbis(oxymethanediyl)]bis(2-methyl-1-octyl-1H-imidazol-3-ium) bis(dicyanamide) + methylcyclohexane; phases: Liquid, Glass
Fixed: Mole fraction of methylcyclohexane = 0
Property: Activity coefficient of methylcyclohexane (Liquid); method: Chromatography
Temperature, K	Activity coefficient of methylcyclohexane	uncertainty
323.15	5.75	.1725
333.15	5.07	.1521
343.15	4.82	.1446

System: 3,3'-[propane-1,3-diylbis(oxymethanediyl)]bis(2-methyl-1-octyl-1H-imidazol-3-ium) bis(dicyanamide) + cycloheptane; phases: Liquid, Gas
Fixed: Mole fraction of cycloheptane = 0
Property: Activity coefficient of cycloheptane (Liquid); method: Chromatography
Temperature, K	Activity coefficient of cycloheptane	uncertainty
323.15	10.09	.3027
333.15	13.5	.405
343.15	18.32	.5496

System: 3,3'-[propane-1,3-diylbis(oxymethanediyl)]bis(2-methyl-1-octyl-1H-imidazol-3-ium) bis(dicyanamide) + benzene; phases: Liquid, Gas
Fixed: Mole fraction of benzene = 0
Property: Activity coefficient of benzene (Liquid); method: Chromatography
Temperature, K	Activity coefficient of benzene	uncertainty
323.15	.7	.021
333.15	.71	.0213
343.15	.71	.0213

System: 3,3'-[propane-1,3-diylbis(oxymethanediyl)]bis(2-methyl-1-octyl-1H-imidazol-3-ium) bis(dicyanamide) + toluene; phases: Liquid, Gas
Fixed: Mole fraction of toluene = 0
Property: Activity coefficient of toluene (Liquid); method: Chromatography
Temperature, K	Activity coefficient of toluene	uncertainty
323.15	.94	.0282
333.15	.95	.0285
343.15	.97	.0291

System: 3,3'-[propane-1,3-diylbis(oxymethanediyl)]bis(2-methyl-1-octyl-1H-imidazol-3-ium) bis(dicyanamide) + ethylbenzene; phases: Liquid, Gas
Fixed: Mole fraction of ethylbenzene = 0
Property: Activity coefficient of ethylbenzene (Liquid); method: Chromatography
Temperature, K	Activity coefficient of ethylbenzene	uncertainty
323.15	1.32	.0396
333.15	1.34	.0402
343.15	1.36	.0408

System: 3,3'-[propane-1,3-diylbis(oxymethanediyl)]bis(2-methyl-1-octyl-1H-imidazol-3-ium) bis(dicyanamide) + m-xylene; phases: Liquid, Gas
Fixed: Mole fraction of m-xylene = 0
Property: Activity coefficient of m-xylene (Liquid); method: Chromatography
Temperature, K	Activity coefficient of m-xylene	uncertainty
323.15	1.36	.0408
333.15	1.37	.0411
343.15	1.39	.0417

System: 3,3'-[propane-1,3-diylbis(oxymethanediyl)]bis(2-methyl-1-octyl-1H-imidazol-3-ium) bis(dicyanamide) + p-xylene; phases: Liquid, Gas
Fixed: Mole fraction of p-xylene = 0
Property: Activity coefficient of p-xylene (Liquid); method: Chromatography
Temperature, K	Activity coefficient of p-xylene	uncertainty
323.15	1.34	.0402
333.15	1.35	.0405
343.15	1.36	.0408

System: 3,3'-[propane-1,3-diylbis(oxymethanediyl)]bis(2-methyl-1-octyl-1H-imidazol-3-ium) bis(dicyanamide) + o-xylene; phases: Liquid, Gas
Fixed: Mole fraction of o-xylene = 0
Property: Activity coefficient of o-xylene (Liquid); method: Chromatography
Temperature, K	Activity coefficient of o-xylene	uncertainty
323.15	1.16	.0348
333.15	1.18	.0354
343.15	1.22	.0366

System: 3,3'-[propane-1,3-diylbis(oxymethanediyl)]bis(2-methyl-1-octyl-1H-imidazol-3-ium) bis(dicyanamide) + 1-hexene; phases: Liquid, Gas
Fixed: Mole fraction of 1-hexene = 0
Property: Activity coefficient of 1-hexene (Liquid); method: Chromatography
Temperature, K	Activity coefficient of 1-hexene	uncertainty
323.15	4.93	.1479
333.15	4.41	.1323

System: 3,3'-[propane-1,3-diylbis(oxymethanediyl)]bis(2-methyl-1-octyl-1H-imidazol-3-ium) bis(dicyanamide) + 1-hexyne; phases: Liquid, Gas
Fixed: Mole fraction of 1-hexyne = 0
Property: Activity coefficient of 1-hexyne (Liquid); method: Chromatography
Temperature, K	Activity coefficient of 1-hexyne	uncertainty
323.15	1.72	.0516
333.15	1.68	.0504
343.15	1.63	.0489

System: 3,3'-[propane-1,3-diylbis(oxymethanediyl)]bis(2-methyl-1-octyl-1H-imidazol-3-ium) bis(dicyanamide) + 1-heptyne; phases: Liquid, Gas
Fixed: Mole fraction of 1-heptyne = 0
Property: Activity coefficient of 1-heptyne (Liquid); method: Chromatography
Temperature, K	Activity coefficient of 1-heptyne	uncertainty
323.15	2.1	.063
333.15	2.12	.0636
343.15	2.15	.0645

System: 3,3'-[propane-1,3-diylbis(oxymethanediyl)]bis(2-methyl-1-octyl-1H-imidazol-3-ium) bis(dicyanamide) + 2-butanone; phases: Liquid, Gas
Fixed: Mole fraction of 2-butanone = 0
Property: Activity coefficient of 2-butanone (Liquid); method: Chromatography
Temperature, K	Activity coefficient of 2-butanone	uncertainty
323.15	.56	.0168
333.15	.5	.015
343.15	.46	.0138

System: 3,3'-[propane-1,3-diylbis(oxymethanediyl)]bis(2-methyl-1-octyl-1H-imidazol-3-ium) bis(dicyanamide) + 2-pentanone; phases: Liquid, Gas
Fixed: Mole fraction of 2-pentanone = 0
Property: Activity coefficient of 2-pentanone (Liquid); method: Chromatography
Temperature, K	Activity coefficient of 2-pentanone	uncertainty
323.15	.8	.024
333.15	.8	.024
343.15	.81	.0243

System: 3,3'-[propane-1,3-diylbis(oxymethanediyl)]bis(2-methyl-1-octyl-1H-imidazol-3-ium) bis(dicyanamide) + 3-pentanone; phases: Liquid, Gas
Fixed: Mole fraction of 3-pentanone = 0
Property: Activity coefficient of 3-pentanone (Liquid); method: Chromatography
Temperature, K	Activity coefficient of 3-pentanone	uncertainty
323.15	.75	.0225
333.15	.76	.0228
343.15	.78	.0234

System: 3,3'-[propane-1,3-diylbis(oxymethanediyl)]bis(2-methyl-1-octyl-1H-imidazol-3-ium) bis(dicyanamide) + 1,4-dioxane; phases: Liquid, Gas
Fixed: Mole fraction of 1,4-dioxane = 0
Property: Activity coefficient of 1,4-dioxane (Liquid); method: Chromatography
Temperature, K	Activity coefficient of 1,4-dioxane	uncertainty
323.15	.55	.0165
333.15	.55	.0165
343.15	.55	.0165

System: 3,3'-[propane-1,3-diylbis(oxymethanediyl)]bis(2-methyl-1-octyl-1H-imidazol-3-ium) bis(dicyanamide) + methanol; phases: Liquid, Gas
Fixed: Mole fraction of methanol = 0
Property: Activity coefficient of methanol (Liquid); method: Chromatography
Temperature, K	Activity coefficient of methanol	uncertainty
323.15	.2	.006
333.15	.2	.006
343.15	.21	.0063

System: 3,3'-[propane-1,3-diylbis(oxymethanediyl)]bis(2-methyl-1-octyl-1H-imidazol-3-ium) bis(dicyanamide) + ethanol; phases: Liquid, Gas
Fixed: Mole fraction of ethanol = 0
Property: Activity coefficient of ethanol (Liquid); method: Chromatography
Temperature, K	Activity coefficient of ethanol	uncertainty
323.15	.3	.009
333.15	.29	.0087
343.15	.29	.0087

System: 3,3'-[propane-1,3-diylbis(oxymethanediyl)]bis(2-methyl-1-octyl-1H-imidazol-3-ium) bis(dicyanamide) + 1-propanol; phases: Liquid, Gas
Fixed: Mole fraction of 1-propanol = 0
Property: Activity coefficient of 1-propanol (Liquid); method: Chromatography
Temperature, K	Activity coefficient of 1-propanol	uncertainty
323.15	.32	.0096
333.15	.32	.0096
343.15	.31	.0093

System: 3,3'-[propane-1,3-diylbis(oxymethanediyl)]bis(2-methyl-1-octyl-1H-imidazol-3-ium) bis(dicyanamide) + 2-propanol; phases: Liquid, Gas
Fixed: Mole fraction of 2-propanol = 0
Property: Activity coefficient of 2-propanol (Liquid); method: Chromatography
Temperature, K	Activity coefficient of 2-propanol	uncertainty
323.15	.4	.012
333.15	.38	.0114
343.15	.38	.0114

System: 3,3'-[propane-1,3-diylbis(oxymethanediyl)]bis(2-methyl-1-octyl-1H-imidazol-3-ium) bis(dicyanamide) + 2-methyl-1-propanol; phases: Liquid, Gas
Fixed: Mole fraction of 2-methyl-1-propanol = 0
Property: Activity coefficient of 2-methyl-1-propanol (Liquid); method: Chromatography
Temperature, K	Activity coefficient of 2-methyl-1-propanol	uncertainty
323.15	.36	.0108
333.15	.36	.0108
343.15	.35	.0105

System: 3,3'-[propane-1,3-diylbis(oxymethanediyl)]bis(2-methyl-1-octyl-1H-imidazol-3-ium) bis(dicyanamide) + 1-butanol; phases: Liquid, Gas
Fixed: Mole fraction of 1-butanol = 0
Property: Activity coefficient of 1-butanol (Liquid); method: Chromatography
Temperature, K	Activity coefficient of 1-butanol	uncertainty
323.15	7.49	.2247
333.15	5.96	.1788
343.15	4.81	.1443

System: 3,3'-[propane-1,3-diylbis(oxymethanediyl)]bis(2-methyl-1-octyl-1H-imidazol-3-ium) bis(dicyanamide) + diethyl ether; phases: Liquid, Gas
Fixed: Mole fraction of diethyl ether = 0
Property: Activity coefficient of diethyl ether (Liquid); method: Chromatography
Temperature, K	Activity coefficient of diethyl ether	uncertainty
323.15	2.41	.0723
333.15	2.33	.0699
343.15	2.13	.0639

System: 3,3'-[propane-1,3-diylbis(oxymethanediyl)]bis(2-methyl-1-octyl-1H-imidazol-3-ium) bis(dicyanamide) + diisopropyl ether; phases: Liquid, Gas
Fixed: Mole fraction of diisopropyl ether = 0
Property: Activity coefficient of diisopropyl ether (Liquid); method: Chromatography
Temperature, K	Activity coefficient of diisopropyl ether	uncertainty
323.15	4.38	.1314
333.15	4.07	.1221
343.15	3.93	.1179

System: 3,3'-[propane-1,3-diylbis(oxymethanediyl)]bis(2-methyl-1-octyl-1H-imidazol-3-ium) bis(dicyanamide) + chloroform; phases: Liquid, Gas
Fixed: Mole fraction of chloroform = 0
Property: Activity coefficient of chloroform (Liquid); method: Chromatography
Temperature, K	Activity coefficient of chloroform	uncertainty
323.15	.24	.0072
333.15	.26	.0078
343.15	.27	.0081

System: 3,3'-[propane-1,3-diylbis(oxymethanediyl)]bis(2-methyl-1-octyl-1H-imidazol-3-ium) bis(dicyanamide) + dichloromethane; phases: Liquid, Gas
Fixed: Mole fraction of dichloromethane = 0
Property: Activity coefficient of dichloromethane (Liquid); method: Chromatography
Temperature, K	Activity coefficient of dichloromethane	uncertainty
323.15	.28	.0084
333.15	.29	.0087
343.15	.31	.0093

System: 3,3'-[propane-1,3-diylbis(oxymethanediyl)]bis(2-methyl-1-octyl-1H-imidazol-3-ium) bis(dicyanamide) + tetrachloromethane; phases: Liquid, Gas
Fixed: Mole fraction of tetrachloromethane = 0
Property: Activity coefficient of tetrachloromethane (Liquid); method: Chromatography
Temperature, K	Activity coefficient of tetrachloromethane	uncertainty
323.15	1.11	.0333
333.15	1.12	.0336
343.15	1.12	.0336

System: 3,3'-[propane-1,3-diylbis(oxymethanediyl)]bis(2-methyl-1-octyl-1H-imidazol-3-ium) bis(dicyanamide) + acetonitrile; phases: Liquid, Gas
Fixed: Mole fraction of acetonitrile = 0
Property: Activity coefficient of acetonitrile (Liquid); method: Chromatography
Temperature, K	Activity coefficient of acetonitrile	uncertainty
323.15	.46	.0138
333.15	.46	.0138
343.15	.45	.0135

System: 3,3'-[propane-1,3-diylbis(oxymethanediyl)]bis(2-methyl-1-octyl-1H-imidazol-3-ium) bis(dicyanamide) + nitromethane; phases: Liquid, Gas
Fixed: Mole fraction of nitromethane = 0
Property: Activity coefficient of nitromethane (Liquid); method: Chromatography
Temperature, K	Activity coefficient of nitromethane	uncertainty
323.15	.44	.0132
333.15	.43	.0129
343.15	.42	.0126

System: 3,3'-[propane-1,3-diylbis(oxymethanediyl)]bis(2-methyl-1-octyl-1H-imidazol-3-ium) bis(dicyanamide) + 1-nitropropane; phases: Liquid, Gas
Fixed: Mole fraction of 1-nitropropane = 0
Property: Activity coefficient of 1-nitropropane (Liquid); method: Chromatography
Temperature, K	Activity coefficient of 1-nitropropane	uncertainty
323.15	.59	.0177
333.15	.58	.0174
343.15	.58	.0174

System: 3,3'-[propane-1,3-diylbis(oxymethanediyl)]bis(2-methyl-1-octyl-1H-imidazol-3-ium) bis(dicyanamide) + pyridine; phases: Liquid, Gas
Fixed: Mole fraction of pyridine = 0
Property: Activity coefficient of pyridine (Liquid); method: Chromatography
Temperature, K	Activity coefficient of pyridine	uncertainty
323.15	.4	.012
333.15	.38	.0114
343.15	.38	.0114

System: 3,3'-[propane-1,3-diylbis(oxymethanediyl)]bis(2-methyl-1-octyl-1H-imidazol-3-ium) bis(dicyanamide) + thiophene; phases: Liquid, Gas
Fixed: Mole fraction of thiophene = 0
Property: Activity coefficient of thiophene (Liquid); method: Chromatography
Temperature, K	Activity coefficient of thiophene	uncertainty
323.15	.49	.0147
333.15	.49	.0147
343.15	.51	.0153

System: 3,3'-[propane-1,3-diylbis(oxymethanediyl)]bis(1-benzyl-1H-imidazol-3-ium) bis(dicyanamide) + nonane; phases: Liquid, Gas
Fixed: Mole fraction of nonane = 0
Property: Activity coefficient of nonane (Liquid); method: Chromatography
Temperature, K	Activity coefficient of nonane	uncertainty
323.15	335.48	10.0644
333.15	263.76	7.9128
343.15	226.31	6.7893

System: 3,3'-[propane-1,3-diylbis(oxymethanediyl)]bis(1-benzyl-1H-imidazol-3-ium) bis(dicyanamide) + decane; phases: Liquid, Gas
Fixed: Mole fraction of decane = 0
Property: Activity coefficient of decane (Liquid); method: Chromatography
Temperature, K	Activity coefficient of decane	uncertainty
323.15	419.64	12.5892
333.15	370.66	11.1198
343.15	321.34	9.6402

System: 3,3'-[propane-1,3-diylbis(oxymethanediyl)]bis(1-benzyl-1H-imidazol-3-ium) bis(dicyanamide) + undecane; phases: Liquid, Gas
Fixed: Mole fraction of undecane = 0
Property: Activity coefficient of undecane (Liquid); method: Chromatography
Temperature, K	Activity coefficient of undecane	uncertainty
323.15	554.44	16.6332
333.15	507.87	15.2361
343.15	457.12	13.7136

System: 3,3'-[propane-1,3-diylbis(oxymethanediyl)]bis(1-benzyl-1H-imidazol-3-ium) bis(dicyanamide) + dodecane; phases: Liquid, Gas
Fixed: Mole fraction of dodecane = 0
Property: Activity coefficient of dodecane (Liquid); method: Chromatography
Temperature, K	Activity coefficient of dodecane	uncertainty
323.15	630.7	18.921
333.15	634.29	19.0287
343.15	599.85	17.9955

System: 3,3'-[propane-1,3-diylbis(oxymethanediyl)]bis(1-benzyl-1H-imidazol-3-ium) bis(dicyanamide) + cycloheptane; phases: Liquid, Gas
Fixed: Mole fraction of cycloheptane = 0
Property: Activity coefficient of cycloheptane (Liquid); method: Chromatography
Temperature, K	Activity coefficient of cycloheptane	uncertainty
323.15	116.94	3.5082
333.15	139.06	4.1718
343.15	170.8	5.124

System: 3,3'-[propane-1,3-diylbis(oxymethanediyl)]bis(1-benzyl-1H-imidazol-3-ium) bis(dicyanamide) + benzene; phases: Liquid, Gas
Fixed: Mole fraction of benzene = 0
Property: Activity coefficient of benzene (Liquid); method: Chromatography
Temperature, K	Activity coefficient of benzene	uncertainty
323.15	3.09	.0927
333.15	2.95	.0885
343.15	2.92	.0876

System: 3,3'-[propane-1,3-diylbis(oxymethanediyl)]bis(1-benzyl-1H-imidazol-3-ium) bis(dicyanamide) + toluene; phases: Liquid, Gas
Fixed: Mole fraction of toluene = 0
Property: Activity coefficient of toluene (Liquid); method: Chromatography
Temperature, K	Activity coefficient of toluene	uncertainty
323.15	5.08	.1524
333.15	4.97	.1491
343.15	4.8	.144

System: 3,3'-[propane-1,3-diylbis(oxymethanediyl)]bis(1-benzyl-1H-imidazol-3-ium) bis(dicyanamide) + ethylbenzene; phases: Liquid, Gas
Fixed: Mole fraction of ethylbenzene = 0
Property: Activity coefficient of ethylbenzene (Liquid); method: Chromatography
Temperature, K	Activity coefficient of ethylbenzene	uncertainty
323.15	8.33	.2499
333.15	8.08	.2424
343.15	7.78	.2334

System: 3,3'-[propane-1,3-diylbis(oxymethanediyl)]bis(1-benzyl-1H-imidazol-3-ium) bis(dicyanamide) + m-xylene; phases: Liquid, Gas
Fixed: Mole fraction of m-xylene = 0
Property: Activity coefficient of m-xylene (Liquid); method: Chromatography
Temperature, K	Activity coefficient of m-xylene	uncertainty
323.15	8.85	.2655
333.15	8.51	.2553
343.15	8.32	.2496

System: 3,3'-[propane-1,3-diylbis(oxymethanediyl)]bis(1-benzyl-1H-imidazol-3-ium) bis(dicyanamide) + p-xylene; phases: Liquid, Gas
Fixed: Mole fraction of p-xylene = 0
Property: Activity coefficient of p-xylene (Liquid); method: Chromatography
Temperature, K	Activity coefficient of p-xylene	uncertainty
323.15	8.84	.2652
333.15	8.42	.2526
343.15	8.16	.2448

System: 3,3'-[propane-1,3-diylbis(oxymethanediyl)]bis(1-benzyl-1H-imidazol-3-ium) bis(dicyanamide) + o-xylene; phases: Liquid, Gas
Fixed: Mole fraction of o-xylene = 0
Property: Activity coefficient of o-xylene (Liquid); method: Chromatography
Temperature, K	Activity coefficient of o-xylene	uncertainty
323.15	7.13	.2139
333.15	6.87	.2061
343.15	6.71	.2013

System: 3,3'-[propane-1,3-diylbis(oxymethanediyl)]bis(1-benzyl-1H-imidazol-3-ium) bis(dicyanamide) + 1-hexyne; phases: Liquid, Gas
Fixed: Mole fraction of 1-hexyne = 0
Property: Activity coefficient of 1-hexyne (Liquid); method: Chromatography
Temperature, K	Activity coefficient of 1-hexyne	uncertainty
323.15	14.08	.4224
333.15	11.73	.3519

System: 3,3'-[propane-1,3-diylbis(oxymethanediyl)]bis(1-benzyl-1H-imidazol-3-ium) bis(dicyanamide) + 1-heptyne; phases: Liquid, Gas
Fixed: Mole fraction of 1-heptyne = 0
Property: Activity coefficient of 1-heptyne (Liquid); method: Chromatography
Temperature, K	Activity coefficient of 1-heptyne	uncertainty
323.15	19.06	.5718
333.15	17.25	.5175
343.15	15.94	.4782

System: 3,3'-[propane-1,3-diylbis(oxymethanediyl)]bis(1-benzyl-1H-imidazol-3-ium) bis(dicyanamide) + 2-butanone; phases: Liquid, Gas
Fixed: Mole fraction of 2-butanone = 0
Property: Activity coefficient of 2-butanone (Liquid); method: Chromatography
Temperature, K	Activity coefficient of 2-butanone	uncertainty
323.15	1.78	.0534
333.15	1.55	.0465
343.15	1.41	.0423

System: 3,3'-[propane-1,3-diylbis(oxymethanediyl)]bis(1-benzyl-1H-imidazol-3-ium) bis(dicyanamide) + 2-pentanone; phases: Liquid, Gas
Fixed: Mole fraction of 2-pentanone = 0
Property: Activity coefficient of 2-pentanone (Liquid); method: Chromatography
Temperature, K	Activity coefficient of 2-pentanone	uncertainty
323.15	3.1	.093
333.15	3.05	.0915
343.15	3.08	.0924

System: 3,3'-[propane-1,3-diylbis(oxymethanediyl)]bis(1-benzyl-1H-imidazol-3-ium) bis(dicyanamide) + 3-pentanone; phases: Liquid, Gas
Fixed: Mole fraction of 3-pentanone = 0
Property: Activity coefficient of 3-pentanone (Liquid); method: Chromatography
Temperature, K	Activity coefficient of 3-pentanone	uncertainty
323.15	2.88	.0864
333.15	2.89	.0867
343.15	2.91	.0873

System: 3,3'-[propane-1,3-diylbis(oxymethanediyl)]bis(1-benzyl-1H-imidazol-3-ium) bis(dicyanamide) + 1,4-dioxane; phases: Liquid, Gas
Fixed: Mole fraction of 1,4-dioxane = 0
Property: Activity coefficient of 1,4-dioxane (Liquid); method: Chromatography
Temperature, K	Activity coefficient of 1,4-dioxane	uncertainty
323.15	1.32	.0396
333.15	1.32	.0396
343.15	1.35	.0405

System: 3,3'-[propane-1,3-diylbis(oxymethanediyl)]bis(1-benzyl-1H-imidazol-3-ium) bis(dicyanamide) + methanol; phases: Liquid, Gas
Fixed: Mole fraction of methanol = 0
Property: Activity coefficient of methanol (Liquid); method: Chromatography
Temperature, K	Activity coefficient of methanol	uncertainty
323.15	.52	.0156
333.15	.51	.0153
343.15	.52	.0156

System: 3,3'-[propane-1,3-diylbis(oxymethanediyl)]bis(1-benzyl-1H-imidazol-3-ium) bis(dicyanamide) + ethanol; phases: Liquid, Gas
Fixed: Mole fraction of ethanol = 0
Property: Activity coefficient of ethanol (Liquid); method: Chromatography
Temperature, K	Activity coefficient of ethanol	uncertainty
323.15	.94	.0282
333.15	.89	.0267
343.15	.86	.0258

System: 3,3'-[propane-1,3-diylbis(oxymethanediyl)]bis(1-benzyl-1H-imidazol-3-ium) bis(dicyanamide) + 1-propanol; phases: Liquid, Gas
Fixed: Mole fraction of 1-propanol = 0
Property: Activity coefficient of 1-propanol (Liquid); method: Chromatography
Temperature, K	Activity coefficient of 1-propanol	uncertainty
323.15	1.24	.0372
333.15	1.2	.036
343.15	1.14	.0342

System: 3,3'-[propane-1,3-diylbis(oxymethanediyl)]bis(1-benzyl-1H-imidazol-3-ium) bis(dicyanamide) + 2-propanol; phases: Liquid, Gas
Fixed: Mole fraction of 2-propanol = 0
Property: Activity coefficient of 2-propanol (Liquid); method: Chromatography
Temperature, K	Activity coefficient of 2-propanol	uncertainty
323.15	1.57	.0471
333.15	1.45	.0435
343.15	1.39	.0417

System: 3,3'-[propane-1,3-diylbis(oxymethanediyl)]bis(1-benzyl-1H-imidazol-3-ium) bis(dicyanamide) + 2-methyl-1-propanol; phases: Liquid, Gas
Fixed: Mole fraction of 2-methyl-1-propanol = 0
Property: Activity coefficient of 2-methyl-1-propanol (Liquid); method: Chromatography
Temperature, K	Activity coefficient of 2-methyl-1-propanol	uncertainty
323.15	1.79	.0537
333.15	1.67	.0501
343.15	1.61	.0483

System: 3,3'-[propane-1,3-diylbis(oxymethanediyl)]bis(1-benzyl-1H-imidazol-3-ium) bis(dicyanamide) + 1-butanol; phases: Liquid, Gas
Fixed: Mole fraction of 1-butanol = 0
Property: Activity coefficient of 1-butanol (Liquid); method: Chromatography
Temperature, K	Activity coefficient of 1-butanol	uncertainty
323.15	1.8	.054
333.15	1.68	.0504
343.15	1.61	.0483

System: 3,3'-[propane-1,3-diylbis(oxymethanediyl)]bis(1-benzyl-1H-imidazol-3-ium) bis(dicyanamide) + chloroform; phases: Liquid, Gas
Fixed: Mole fraction of chloroform = 0
Property: Activity coefficient of chloroform (Liquid); method: Chromatography
Temperature, K	Activity coefficient of chloroform	uncertainty
323.15	1.22	.0366
333.15	1.2	.036
343.15	1.33	.0399

System: 3,3'-[propane-1,3-diylbis(oxymethanediyl)]bis(1-benzyl-1H-imidazol-3-ium) bis(dicyanamide) + acetonitrile; phases: Liquid, Gas
Fixed: Mole fraction of acetonitrile = 0
Property: Activity coefficient of acetonitrile (Liquid); method: Chromatography
Temperature, K	Activity coefficient of acetonitrile	uncertainty
323.15	.99	.0297
333.15	.97	.0291
343.15	.98	.0294

System: 3,3'-[propane-1,3-diylbis(oxymethanediyl)]bis(1-benzyl-1H-imidazol-3-ium) bis(dicyanamide) + nitromethane; phases: Liquid, Gas
Fixed: Mole fraction of nitromethane = 0
Property: Activity coefficient of nitromethane (Liquid); method: Chromatography
Temperature, K	Activity coefficient of nitromethane	uncertainty
323.15	.86	.0258
333.15	.85	.0255
343.15	.87	.0261

System: 3,3'-[propane-1,3-diylbis(oxymethanediyl)]bis(1-benzyl-1H-imidazol-3-ium) bis(dicyanamide) + 1-nitropropane; phases: Liquid, Gas
Fixed: Mole fraction of 1-nitropropane = 0
Property: Activity coefficient of 1-nitropropane (Liquid); method: Chromatography
Temperature, K	Activity coefficient of 1-nitropropane	uncertainty
323.15	1.76	.0528
333.15	1.73	.0519
343.15	1.75	.0525

System: 3,3'-[propane-1,3-diylbis(oxymethanediyl)]bis(1-benzyl-1H-imidazol-3-ium) bis(dicyanamide) + pyridine; phases: Liquid, Gas
Fixed: Mole fraction of pyridine = 0
Property: Activity coefficient of pyridine (Liquid); method: Chromatography
Temperature, K	Activity coefficient of pyridine	uncertainty
323.15	1.1	.033
333.15	1.1	.033
343.15	1.12	.0336

System: 3,3'-[propane-1,3-diylbis(oxymethanediyl)]bis(1-benzyl-1H-imidazol-3-ium) bis(dicyanamide) + thiophene; phases: Liquid, Gas
Fixed: Mole fraction of thiophene = 0
Property: Activity coefficient of thiophene (Liquid); method: Chromatography
Temperature, K	Activity coefficient of thiophene	uncertainty
323.15	1.7	.051
333.15	1.64	.0492
343.15	1.67	.0501

System: 4-(dimethylamino)-1-(propoxymethyl)pyridinium bis[(trifluoromethyl)sulfonyl]imide + hexane; phases: Liquid, Gas
Fixed: Mole fraction of hexane = 0
Property: Activity coefficient of hexane (Liquid); method: Chromatography
Temperature, K	Activity coefficient of hexane	uncertainty
323.15	11.88	.3564
333.15	10.97	.3291
343.15	10.13	.3039

System: 4-(dimethylamino)-1-(propoxymethyl)pyridinium bis[(trifluoromethyl)sulfonyl]imide + 3-methylpentane; phases: Liquid, Gas
Fixed: Mole fraction of 3-methylpentane = 0
Property: Activity coefficient of 3-methylpentane (Liquid); method: Chromatography
Temperature, K	Activity coefficient of 3-methylpentane	uncertainty
323.15	9.61	.2883
333.15	9.48	.2844
343.15	9.24	.2772

System: 4-(dimethylamino)-1-(propoxymethyl)pyridinium bis[(trifluoromethyl)sulfonyl]imide + heptane; phases: Liquid, Gas
Fixed: Mole fraction of heptane = 0
Property: Activity coefficient of heptane (Liquid); method: Chromatography
Temperature, K	Activity coefficient of heptane	uncertainty
323.15	15.8	.474
333.15	14.78	.4434
343.15	13.87	.4161

System: 4-(dimethylamino)-1-(propoxymethyl)pyridinium bis[(trifluoromethyl)sulfonyl]imide + octane; phases: Liquid, Gas
Fixed: Mole fraction of octane = 0
Property: Activity coefficient of octane (Liquid); method: Chromatography
Temperature, K	Activity coefficient of octane	uncertainty
323.15	22.18	.6654
333.15	20.5	.615
343.15	17.74	.5322

System: 4-(dimethylamino)-1-(propoxymethyl)pyridinium bis[(trifluoromethyl)sulfonyl]imide + nonane; phases: Liquid, Gas
Fixed: Mole fraction of nonane = 0
Property: Activity coefficient of nonane (Liquid); method: Chromatography
Temperature, K	Activity coefficient of nonane	uncertainty
323.15	32.76	.9828
333.15	30.61	.9183
343.15	27.09	.8127

System: 4-(dimethylamino)-1-(propoxymethyl)pyridinium bis[(trifluoromethyl)sulfonyl]imide + decane; phases: Liquid, Gas
Fixed: Mole fraction of decane = 0
Property: Activity coefficient of decane (Liquid); method: Chromatography
Temperature, K	Activity coefficient of decane	uncertainty
323.15	41.12	1.2336
333.15	38.47	1.1541
343.15	34.5	1.035

System: 4-(dimethylamino)-1-(propoxymethyl)pyridinium bis[(trifluoromethyl)sulfonyl]imide + undecane; phases: Liquid, Gas
Fixed: Mole fraction of undecane = 0
Property: Activity coefficient of undecane (Liquid); method: Chromatography
Temperature, K	Activity coefficient of undecane	uncertainty
323.15	55.74	1.6722
333.15	52.93	1.5879
343.15	46.64	1.3992

System: 4-(dimethylamino)-1-(propoxymethyl)pyridinium bis[(trifluoromethyl)sulfonyl]imide + dodecane; phases: Liquid, Gas
Fixed: Mole fraction of dodecane = 0
Property: Activity coefficient of dodecane (Liquid); method: Chromatography
Temperature, K	Activity coefficient of dodecane	uncertainty
323.15	73.53	2.2059
333.15	69.43	2.0829
343.15	61.73	1.8519

System: 4-(dimethylamino)-1-(propoxymethyl)pyridinium bis[(trifluoromethyl)sulfonyl]imide + tridecane; phases: Liquid, Gas
Fixed: Mole fraction of tridecane = 0
Property: Activity coefficient of tridecane (Liquid); method: Chromatography
Temperature, K	Activity coefficient of tridecane	uncertainty
323.15	102.41	3.0723
333.15	96.39	2.8917
343.15	81.94	2.4582

System: 4-(dimethylamino)-1-(propoxymethyl)pyridinium bis[(trifluoromethyl)sulfonyl]imide + methylcyclopentane; phases: Liquid, Gas
Fixed: Mole fraction of methylcyclopentane = 0
Property: Activity coefficient of methylcyclopentane (Liquid); method: Chromatography
Temperature, K	Activity coefficient of methylcyclopentane	uncertainty
323.15	7.35	.2205
333.15	7.22	.2166
343.15	6.1	.183

System: 4-(dimethylamino)-1-(propoxymethyl)pyridinium bis[(trifluoromethyl)sulfonyl]imide + cyclohexane; phases: Liquid, Gas
Fixed: Mole fraction of cyclohexane = 0
Property: Activity coefficient of cyclohexane (Liquid); method: Chromatography
Temperature, K	Activity coefficient of cyclohexane	uncertainty
323.15	7.06	.2118
333.15	6.83	.2049
343.15	6.37	.1911

System: 4-(dimethylamino)-1-(propoxymethyl)pyridinium bis[(trifluoromethyl)sulfonyl]imide + methylcyclohexane; phases: Liquid, Glass
Fixed: Mole fraction of methylcyclohexane = 0
Property: Activity coefficient of methylcyclohexane (Liquid); method: Chromatography
Temperature, K	Activity coefficient of methylcyclohexane	uncertainty
323.15	9.3	.279
333.15	8.99	.2697
343.15	7.79	.2337

System: 4-(dimethylamino)-1-(propoxymethyl)pyridinium bis[(trifluoromethyl)sulfonyl]imide + cycloheptane; phases: Liquid, Gas
Fixed: Mole fraction of cycloheptane = 0
Property: Activity coefficient of cycloheptane (Liquid); method: Chromatography
Temperature, K	Activity coefficient of cycloheptane	uncertainty
323.15	18.64	.5592
333.15	24.58	.7374
343.15	31.72	.9516

System: 4-(dimethylamino)-1-(propoxymethyl)pyridinium bis[(trifluoromethyl)sulfonyl]imide + benzene; phases: Liquid, Gas
Fixed: Mole fraction of benzene = 0
Property: Activity coefficient of benzene (Liquid); method: Chromatography
Temperature, K	Activity coefficient of benzene	uncertainty
323.15	.74	.0222
333.15	.78	.0234
343.15	.78	.0234

System: 4-(dimethylamino)-1-(propoxymethyl)pyridinium bis[(trifluoromethyl)sulfonyl]imide + toluene; phases: Liquid, Gas
Fixed: Mole fraction of toluene = 0
Property: Activity coefficient of toluene (Liquid); method: Chromatography
Temperature, K	Activity coefficient of toluene	uncertainty
323.15	.99	.0297
333.15	1.04	.0312
343.15	1.05	.0315

System: 4-(dimethylamino)-1-(propoxymethyl)pyridinium bis[(trifluoromethyl)sulfonyl]imide + ethylbenzene; phases: Liquid, Gas
Fixed: Mole fraction of ethylbenzene = 0
Property: Activity coefficient of ethylbenzene (Liquid); method: Chromatography
Temperature, K	Activity coefficient of ethylbenzene	uncertainty
323.15	1.45	.0435
333.15	1.53	.0459
343.15	1.53	.0459

System: 4-(dimethylamino)-1-(propoxymethyl)pyridinium bis[(trifluoromethyl)sulfonyl]imide + m-xylene; phases: Liquid, Gas
Fixed: Mole fraction of m-xylene = 0
Property: Activity coefficient of m-xylene (Liquid); method: Chromatography
Temperature, K	Activity coefficient of m-xylene	uncertainty
323.15	1.4	.042
333.15	1.47	.0441
343.15	1.48	.0444

System: 4-(dimethylamino)-1-(propoxymethyl)pyridinium bis[(trifluoromethyl)sulfonyl]imide + p-xylene; phases: Liquid, Gas
Fixed: Mole fraction of p-xylene = 0
Property: Activity coefficient of p-xylene (Liquid); method: Chromatography
Temperature, K	Activity coefficient of p-xylene	uncertainty
323.15	1.38	.0414
333.15	1.45	.0435
343.15	1.45	.0435

System: 4-(dimethylamino)-1-(propoxymethyl)pyridinium bis[(trifluoromethyl)sulfonyl]imide + o-xylene; phases: Liquid, Gas
Fixed: Mole fraction of o-xylene = 0
Property: Activity coefficient of o-xylene (Liquid); method: Chromatography
Temperature, K	Activity coefficient of o-xylene	uncertainty
323.15	1.24	.0372
333.15	1.31	.0393
343.15	1.33	.0399

System: 4-(dimethylamino)-1-(propoxymethyl)pyridinium bis[(trifluoromethyl)sulfonyl]imide + 1-hexene; phases: Liquid, Gas
Fixed: Mole fraction of 1-hexene = 0
Property: Activity coefficient of 1-hexene (Liquid); method: Chromatography
Temperature, K	Activity coefficient of 1-hexene	uncertainty
323.15	6.62	.1986
333.15	6.79	.2037
343.15	5.24	.1572

System: 4-(dimethylamino)-1-(propoxymethyl)pyridinium bis[(trifluoromethyl)sulfonyl]imide + 1-hexyne; phases: Liquid, Gas
Fixed: Mole fraction of 1-hexyne = 0
Property: Activity coefficient of 1-hexyne (Liquid); method: Chromatography
Temperature, K	Activity coefficient of 1-hexyne	uncertainty
323.15	2.51	.0753
333.15	2.5	.075
343.15	2.5	.075

System: 4-(dimethylamino)-1-(propoxymethyl)pyridinium bis[(trifluoromethyl)sulfonyl]imide + 1-heptyne; phases: Liquid, Gas
Fixed: Mole fraction of 1-heptyne = 0
Property: Activity coefficient of 1-heptyne (Liquid); method: Chromatography
Temperature, K	Activity coefficient of 1-heptyne	uncertainty
323.15	3.33	.0999
333.15	3.35	.1005
343.15	3.34	.1002

System: 4-(dimethylamino)-1-(propoxymethyl)pyridinium bis[(trifluoromethyl)sulfonyl]imide + 2-butanone; phases: Liquid, Gas
Fixed: Mole fraction of 2-butanone = 0
Property: Activity coefficient of 2-butanone (Liquid); method: Chromatography
Temperature, K	Activity coefficient of 2-butanone	uncertainty
323.15	.51	.0153
333.15	.49	.0147
343.15	.45	.0135

System: 4-(dimethylamino)-1-(propoxymethyl)pyridinium bis[(trifluoromethyl)sulfonyl]imide + 2-pentanone; phases: Liquid, Gas
Fixed: Mole fraction of 2-pentanone = 0
Property: Activity coefficient of 2-pentanone (Liquid); method: Chromatography
Temperature, K	Activity coefficient of 2-pentanone	uncertainty
323.15	.75	.0225
333.15	.78	.0234
343.15	.78	.0234

System: 4-(dimethylamino)-1-(propoxymethyl)pyridinium bis[(trifluoromethyl)sulfonyl]imide + 3-pentanone; phases: Liquid, Gas
Fixed: Mole fraction of 3-pentanone = 0
Property: Activity coefficient of 3-pentanone (Liquid); method: Chromatography
Temperature, K	Activity coefficient of 3-pentanone	uncertainty
323.15	.72	.0216
333.15	.75	.0225
343.15	.76	.0228

System: 4-(dimethylamino)-1-(propoxymethyl)pyridinium bis[(trifluoromethyl)sulfonyl]imide + 1,4-dioxane; phases: Liquid, Gas
Fixed: Mole fraction of 1,4-dioxane = 0
Property: Activity coefficient of 1,4-dioxane (Liquid); method: Chromatography
Temperature, K	Activity coefficient of 1,4-dioxane	uncertainty
323.15	.56	.0168
333.15	.59	.0177
343.15	.59	.0177

System: 4-(dimethylamino)-1-(propoxymethyl)pyridinium bis[(trifluoromethyl)sulfonyl]imide + methanol; phases: Liquid, Gas
Fixed: Mole fraction of methanol = 0
Property: Activity coefficient of methanol (Liquid); method: Chromatography
Temperature, K	Activity coefficient of methanol	uncertainty
323.15	1.28	.0384
333.15	1.23	.0369
343.15	1.16	.0348

System: 4-(dimethylamino)-1-(propoxymethyl)pyridinium bis[(trifluoromethyl)sulfonyl]imide + ethanol; phases: Liquid, Gas
Fixed: Mole fraction of ethanol = 0
Property: Activity coefficient of ethanol (Liquid); method: Chromatography
Temperature, K	Activity coefficient of ethanol	uncertainty
323.15	1.57	.0471
333.15	1.47	.0441
343.15	1.4	.042

System: 4-(dimethylamino)-1-(propoxymethyl)pyridinium bis[(trifluoromethyl)sulfonyl]imide + 1-propanol; phases: Liquid, Gas
Fixed: Mole fraction of 1-propanol = 0
Property: Activity coefficient of 1-propanol (Liquid); method: Chromatography
Temperature, K	Activity coefficient of 1-propanol	uncertainty
323.15	1.93	.0579
333.15	1.72	.0516
343.15	1.53	.0459

System: 4-(dimethylamino)-1-(propoxymethyl)pyridinium bis[(trifluoromethyl)sulfonyl]imide + 2-propanol; phases: Liquid, Gas
Fixed: Mole fraction of 2-propanol = 0
Property: Activity coefficient of 2-propanol (Liquid); method: Chromatography
Temperature, K	Activity coefficient of 2-propanol	uncertainty
323.15	1.7	.051
333.15	1.62	.0486
343.15	1.45	.0435

System: 4-(dimethylamino)-1-(propoxymethyl)pyridinium bis[(trifluoromethyl)sulfonyl]imide + 2-methyl-1-propanol; phases: Liquid, Gas
Fixed: Mole fraction of 2-methyl-1-propanol = 0
Property: Activity coefficient of 2-methyl-1-propanol (Liquid); method: Chromatography
Temperature, K	Activity coefficient of 2-methyl-1-propanol	uncertainty
323.15	2.03	.0609
333.15	1.92	.0576
343.15	1.73	.0519

System: 4-(dimethylamino)-1-(propoxymethyl)pyridinium bis[(trifluoromethyl)sulfonyl]imide + 1-butanol; phases: Liquid, Gas
Fixed: Mole fraction of 1-butanol = 0
Property: Activity coefficient of 1-butanol (Liquid); method: Chromatography
Temperature, K	Activity coefficient of 1-butanol	uncertainty
323.15	2.25	.0675
333.15	2.04	.0612
343.15	1.85	.0555

System: 4-(dimethylamino)-1-(propoxymethyl)pyridinium bis[(trifluoromethyl)sulfonyl]imide + diisopropyl ether; phases: Liquid, Gas
Fixed: Mole fraction of diisopropyl ether = 0
Property: Activity coefficient of diisopropyl ether (Liquid); method: Chromatography
Temperature, K	Activity coefficient of diisopropyl ether	uncertainty
323.15	4.49	.1347
333.15	4.54	.1362
343.15	4.12	.1236

System: 4-(dimethylamino)-1-(propoxymethyl)pyridinium bis[(trifluoromethyl)sulfonyl]imide + chloroform; phases: Liquid, Gas
Fixed: Mole fraction of chloroform = 0
Property: Activity coefficient of chloroform (Liquid); method: Chromatography
Temperature, K	Activity coefficient of chloroform	uncertainty
323.15	.71	.0213
333.15	.75	.0225
343.15	.79	.0237

System: 4-(dimethylamino)-1-(propoxymethyl)pyridinium bis[(trifluoromethyl)sulfonyl]imide + dichloromethane; phases: Liquid, Gas
Fixed: Mole fraction of dichloromethane = 0
Property: Activity coefficient of dichloromethane (Liquid); method: Chromatography
Temperature, K	Activity coefficient of dichloromethane	uncertainty
323.15	.57	.0171
333.15	.62	.0186
343.15	.63	.0189

System: 4-(dimethylamino)-1-(propoxymethyl)pyridinium bis[(trifluoromethyl)sulfonyl]imide + tetrachloromethane; phases: Liquid, Gas
Fixed: Mole fraction of tetrachloromethane = 0
Property: Activity coefficient of tetrachloromethane (Liquid); method: Chromatography
Temperature, K	Activity coefficient of tetrachloromethane	uncertainty
323.15	2.01	.0603
333.15	2.08	.0624
343.15	1.95	.0585

System: 4-(dimethylamino)-1-(propoxymethyl)pyridinium bis[(trifluoromethyl)sulfonyl]imide + acetonitrile; phases: Liquid, Gas
Fixed: Mole fraction of acetonitrile = 0
Property: Activity coefficient of acetonitrile (Liquid); method: Chromatography
Temperature, K	Activity coefficient of acetonitrile	uncertainty
323.15	.51	.0153
333.15	.52	.0156
343.15	.52	.0156

System: 4-(dimethylamino)-1-(propoxymethyl)pyridinium bis[(trifluoromethyl)sulfonyl]imide + nitromethane; phases: Liquid, Gas
Fixed: Mole fraction of nitromethane = 0
Property: Activity coefficient of nitromethane (Liquid); method: Chromatography
Temperature, K	Activity coefficient of nitromethane	uncertainty
323.15	.54	.0162
333.15	.55	.0165
343.15	.54	.0162

System: 4-(dimethylamino)-1-(propoxymethyl)pyridinium bis[(trifluoromethyl)sulfonyl]imide + 1-nitropropane; phases: Liquid, Gas
Fixed: Mole fraction of 1-nitropropane = 0
Property: Activity coefficient of 1-nitropropane (Liquid); method: Chromatography
Temperature, K	Activity coefficient of 1-nitropropane	uncertainty
323.15	.68	.0204
333.15	.69	.0207
343.15	.69	.0207

System: 4-(dimethylamino)-1-(propoxymethyl)pyridinium bis[(trifluoromethyl)sulfonyl]imide + pyridine; phases: Liquid, Gas
Fixed: Mole fraction of pyridine = 0
Property: Activity coefficient of pyridine (Liquid); method: Chromatography
Temperature, K	Activity coefficient of pyridine	uncertainty
323.15	.43	.0129
333.15	.45	.0135
343.15	.46	.0138

System: 4-(dimethylamino)-1-(propoxymethyl)pyridinium bis[(trifluoromethyl)sulfonyl]imide + thiophene; phases: Liquid, Gas
Fixed: Mole fraction of thiophene = 0
Property: Activity coefficient of thiophene (Liquid); method: Chromatography
Temperature, K	Activity coefficient of thiophene	uncertainty
323.15	.65	.0195
333.15	.69	.0207
343.15	.69	.0207

System: 1,1'-[propane-1,3-diylbis(oxymethanediyl)]bis[4-(dimethylamino)pyridinium] bis{bis[(trifluoromethyl)sulfonyl]imide} + hexane; phases: Liquid, Gas
Fixed: Mole fraction of hexane = 0
Property: Activity coefficient of hexane (Liquid); method: Chromatography
Temperature, K	Activity coefficient of hexane	uncertainty
323.15	7.4	.222
333.15	5.82	.1746
343.15	4.7	.141

System: 1,1'-[propane-1,3-diylbis(oxymethanediyl)]bis[4-(dimethylamino)pyridinium] bis{bis[(trifluoromethyl)sulfonyl]imide} + heptane; phases: Liquid, Gas
Fixed: Mole fraction of heptane = 0
Property: Activity coefficient of heptane (Liquid); method: Chromatography
Temperature, K	Activity coefficient of heptane	uncertainty
323.15	28.94	.8682
333.15	23.32	.6996
343.15	24.32	.7296

System: 1,1'-[propane-1,3-diylbis(oxymethanediyl)]bis[4-(dimethylamino)pyridinium] bis{bis[(trifluoromethyl)sulfonyl]imide} + 2,2,4-trimethylpentane; phases: Liquid, Gas
Fixed: Mole fraction of 2,2,4-trimethylpentane = 0
Property: Activity coefficient of 2,2,4-trimethylpentane (Liquid); method: Chromatography
Temperature, K	Activity coefficient of 2,2,4-trimethylpentane	uncertainty
323.15	31.73	.9519
333.15	25.16	.7548
343.15	25.39	.7617

System: 1,1'-[propane-1,3-diylbis(oxymethanediyl)]bis[4-(dimethylamino)pyridinium] bis{bis[(trifluoromethyl)sulfonyl]imide} + octane; phases: Liquid, Gas
Fixed: Mole fraction of octane = 0
Property: Activity coefficient of octane (Liquid); method: Chromatography
Temperature, K	Activity coefficient of octane	uncertainty
323.15	37.93	1.1379
333.15	34.54	1.0362
343.15	30.01	.9003

System: 1,1'-[propane-1,3-diylbis(oxymethanediyl)]bis[4-(dimethylamino)pyridinium] bis{bis[(trifluoromethyl)sulfonyl]imide} + nonane; phases: Liquid, Gas
Fixed: Mole fraction of nonane = 0
Property: Activity coefficient of nonane (Liquid); method: Chromatography
Temperature, K	Activity coefficient of nonane	uncertainty
323.15	60.72	1.8216
333.15	51.96	1.5588
343.15	47.22	1.4166

System: 1,1'-[propane-1,3-diylbis(oxymethanediyl)]bis[4-(dimethylamino)pyridinium] bis{bis[(trifluoromethyl)sulfonyl]imide} + decane; phases: Liquid, Gas
Fixed: Mole fraction of decane = 0
Property: Activity coefficient of decane (Liquid); method: Chromatography
Temperature, K	Activity coefficient of decane	uncertainty
323.15	79.53	2.3859
333.15	71.01	2.1303
343.15	62.96	1.8888

System: 1,1'-[propane-1,3-diylbis(oxymethanediyl)]bis[4-(dimethylamino)pyridinium] bis{bis[(trifluoromethyl)sulfonyl]imide} + undecane; phases: Liquid, Gas
Fixed: Mole fraction of undecane = 0
Property: Activity coefficient of undecane (Liquid); method: Chromatography
Temperature, K	Activity coefficient of undecane	uncertainty
323.15	114.32	3.4296
333.15	99.03	2.9709
343.15	88.64	2.6592

System: 1,1'-[propane-1,3-diylbis(oxymethanediyl)]bis[4-(dimethylamino)pyridinium] bis{bis[(trifluoromethyl)sulfonyl]imide} + dodecane; phases: Liquid, Gas
Fixed: Mole fraction of dodecane = 0
Property: Activity coefficient of dodecane (Liquid); method: Chromatography
Temperature, K	Activity coefficient of dodecane	uncertainty
323.15	155.56	4.6668
333.15	137	4.11
343.15	123.61	3.7083

System: 1,1'-[propane-1,3-diylbis(oxymethanediyl)]bis[4-(dimethylamino)pyridinium] bis{bis[(trifluoromethyl)sulfonyl]imide} + methylcyclopentane; phases: Liquid, Gas
Fixed: Mole fraction of methylcyclopentane = 0
Property: Activity coefficient of methylcyclopentane (Liquid); method: Chromatography
Temperature, K	Activity coefficient of methylcyclopentane	uncertainty
323.15	11.01	.3303
333.15	9.51	.2853
343.15	9	.27

System: 1,1'-[propane-1,3-diylbis(oxymethanediyl)]bis[4-(dimethylamino)pyridinium] bis{bis[(trifluoromethyl)sulfonyl]imide} + cyclohexane; phases: Liquid, Gas
Fixed: Mole fraction of cyclohexane = 0
Property: Activity coefficient of cyclohexane (Liquid); method: Chromatography
Temperature, K	Activity coefficient of cyclohexane	uncertainty
323.15	10.71	.3213
333.15	9.32	.2796
343.15	8.67	.2601

System: 1,1'-[propane-1,3-diylbis(oxymethanediyl)]bis[4-(dimethylamino)pyridinium] bis{bis[(trifluoromethyl)sulfonyl]imide} + methylcyclohexane; phases: Liquid, Glass
Fixed: Mole fraction of methylcyclohexane = 0
Property: Activity coefficient of methylcyclohexane (Liquid); method: Chromatography
Temperature, K	Activity coefficient of methylcyclohexane	uncertainty
323.15	13.9	.417
333.15	12.73	.3819
343.15	11.79	.3537

System: 1,1'-[propane-1,3-diylbis(oxymethanediyl)]bis[4-(dimethylamino)pyridinium] bis{bis[(trifluoromethyl)sulfonyl]imide} + cycloheptane; phases: Liquid, Gas
Fixed: Mole fraction of cycloheptane = 0
Property: Activity coefficient of cycloheptane (Liquid); method: Chromatography
Temperature, K	Activity coefficient of cycloheptane	uncertainty
323.15	26.97	.8091
333.15	34.85	1.0455
343.15	42.78	1.2834

System: 1,1'-[propane-1,3-diylbis(oxymethanediyl)]bis[4-(dimethylamino)pyridinium] bis{bis[(trifluoromethyl)sulfonyl]imide} + benzene; phases: Liquid, Gas
Fixed: Mole fraction of benzene = 0
Property: Activity coefficient of benzene (Liquid); method: Chromatography
Temperature, K	Activity coefficient of benzene	uncertainty
323.15	.66	.0198
333.15	.67	.0201
343.15	.68	.0204

System: 1,1'-[propane-1,3-diylbis(oxymethanediyl)]bis[4-(dimethylamino)pyridinium] bis{bis[(trifluoromethyl)sulfonyl]imide} + toluene; phases: Liquid, Gas
Fixed: Mole fraction of toluene = 0
Property: Activity coefficient of toluene (Liquid); method: Chromatography
Temperature, K	Activity coefficient of toluene	uncertainty
323.15	.92	.0276
333.15	.94	.0282
343.15	.96	.0288

System: 1,1'-[propane-1,3-diylbis(oxymethanediyl)]bis[4-(dimethylamino)pyridinium] bis{bis[(trifluoromethyl)sulfonyl]imide} + ethylbenzene; phases: Liquid, Gas
Fixed: Mole fraction of ethylbenzene = 0
Property: Activity coefficient of ethylbenzene (Liquid); method: Chromatography
Temperature, K	Activity coefficient of ethylbenzene	uncertainty
323.15	1.46	.0438
333.15	1.49	.0447
343.15	1.5	.045

System: 1,1'-[propane-1,3-diylbis(oxymethanediyl)]bis[4-(dimethylamino)pyridinium] bis{bis[(trifluoromethyl)sulfonyl]imide} + m-xylene; phases: Liquid, Gas
Fixed: Mole fraction of m-xylene = 0
Property: Activity coefficient of m-xylene (Liquid); method: Chromatography
Temperature, K	Activity coefficient of m-xylene	uncertainty
323.15	1.36	.0408
333.15	1.38	.0414
343.15	1.4	.042

System: 1,1'-[propane-1,3-diylbis(oxymethanediyl)]bis[4-(dimethylamino)pyridinium] bis{bis[(trifluoromethyl)sulfonyl]imide} + p-xylene; phases: Liquid, Gas
Fixed: Mole fraction of p-xylene = 0
Property: Activity coefficient of p-xylene (Liquid); method: Chromatography
Temperature, K	Activity coefficient of p-xylene	uncertainty
323.15	1.34	.0402
333.15	1.36	.0408
343.15	1.37	.0411

System: 1,1'-[propane-1,3-diylbis(oxymethanediyl)]bis[4-(dimethylamino)pyridinium] bis{bis[(trifluoromethyl)sulfonyl]imide} + o-xylene; phases: Liquid, Gas
Fixed: Mole fraction of o-xylene = 0
Property: Activity coefficient of o-xylene (Liquid); method: Chromatography
Temperature, K	Activity coefficient of o-xylene	uncertainty
323.15	1.18	.0354
333.15	1.2	.036
343.15	1.22	.0366

System: 1,1'-[propane-1,3-diylbis(oxymethanediyl)]bis[4-(dimethylamino)pyridinium] bis{bis[(trifluoromethyl)sulfonyl]imide} + 1-hexene; phases: Liquid, Gas
Fixed: Mole fraction of 1-hexene = 0
Property: Activity coefficient of 1-hexene (Liquid); method: Chromatography
Temperature, K	Activity coefficient of 1-hexene	uncertainty
323.15	9.4	.282
333.15	8.7	.261
343.15	7.95	.2385

System: 1,1'-[propane-1,3-diylbis(oxymethanediyl)]bis[4-(dimethylamino)pyridinium] bis{bis[(trifluoromethyl)sulfonyl]imide} + 1-hexyne; phases: Liquid, Gas
Fixed: Mole fraction of 1-hexyne = 0
Property: Activity coefficient of 1-hexyne (Liquid); method: Chromatography
Temperature, K	Activity coefficient of 1-hexyne	uncertainty
323.15	3	.09
333.15	2.96	.0888
343.15	2.92	.0876

System: 1,1'-[propane-1,3-diylbis(oxymethanediyl)]bis[4-(dimethylamino)pyridinium] bis{bis[(trifluoromethyl)sulfonyl]imide} + 1-heptyne; phases: Liquid, Gas
Fixed: Mole fraction of 1-heptyne = 0
Property: Activity coefficient of 1-heptyne (Liquid); method: Chromatography
Temperature, K	Activity coefficient of 1-heptyne	uncertainty
323.15	4.2	.126
333.15	4.09	.1227
343.15	4.01	.1203

System: 1,1'-[propane-1,3-diylbis(oxymethanediyl)]bis[4-(dimethylamino)pyridinium] bis{bis[(trifluoromethyl)sulfonyl]imide} + 2-butanone; phases: Liquid, Gas
Fixed: Mole fraction of 2-butanone = 0
Property: Activity coefficient of 2-butanone (Liquid); method: Chromatography
Temperature, K	Activity coefficient of 2-butanone	uncertainty
323.15	.44	.0132
333.15	.41	.0123
343.15	.38	.0114

System: 1,1'-[propane-1,3-diylbis(oxymethanediyl)]bis[4-(dimethylamino)pyridinium] bis{bis[(trifluoromethyl)sulfonyl]imide} + 2-pentanone; phases: Liquid, Gas
Fixed: Mole fraction of 2-pentanone = 0
Property: Activity coefficient of 2-pentanone (Liquid); method: Chromatography
Temperature, K	Activity coefficient of 2-pentanone	uncertainty
323.15	.69	.0207
333.15	.7	.021
343.15	.71	.0213

System: 1,1'-[propane-1,3-diylbis(oxymethanediyl)]bis[4-(dimethylamino)pyridinium] bis{bis[(trifluoromethyl)sulfonyl]imide} + 3-pentanone; phases: Liquid, Gas
Fixed: Mole fraction of 3-pentanone = 0
Property: Activity coefficient of 3-pentanone (Liquid); method: Chromatography
Temperature, K	Activity coefficient of 3-pentanone	uncertainty
323.15	.67	.0201
333.15	.69	.0207
343.15	.7	.021

System: 1,1'-[propane-1,3-diylbis(oxymethanediyl)]bis[4-(dimethylamino)pyridinium] bis{bis[(trifluoromethyl)sulfonyl]imide} + 1,4-dioxane; phases: Liquid, Gas
Fixed: Mole fraction of 1,4-dioxane = 0
Property: Activity coefficient of 1,4-dioxane (Liquid); method: Chromatography
Temperature, K	Activity coefficient of 1,4-dioxane	uncertainty
323.15	.44	.0132
333.15	.45	.0135
343.15	.45	.0135

System: 1,1'-[propane-1,3-diylbis(oxymethanediyl)]bis[4-(dimethylamino)pyridinium] bis{bis[(trifluoromethyl)sulfonyl]imide} + methanol; phases: Liquid, Gas
Fixed: Mole fraction of methanol = 0
Property: Activity coefficient of methanol (Liquid); method: Chromatography
Temperature, K	Activity coefficient of methanol	uncertainty
323.15	.91	.0273
333.15	.86	.0258
343.15	.79	.0237

System: 1,1'-[propane-1,3-diylbis(oxymethanediyl)]bis[4-(dimethylamino)pyridinium] bis{bis[(trifluoromethyl)sulfonyl]imide} + ethanol; phases: Liquid, Gas
Fixed: Mole fraction of ethanol = 0
Property: Activity coefficient of ethanol (Liquid); method: Chromatography
Temperature, K	Activity coefficient of ethanol	uncertainty
323.15	1.21	.0363
333.15	1.11	.0333
343.15	1.02	.0306

System: 1,1'-[propane-1,3-diylbis(oxymethanediyl)]bis[4-(dimethylamino)pyridinium] bis{bis[(trifluoromethyl)sulfonyl]imide} + 1-propanol; phases: Liquid, Gas
Fixed: Mole fraction of 1-propanol = 0
Property: Activity coefficient of 1-propanol (Liquid); method: Chromatography
Temperature, K	Activity coefficient of 1-propanol	uncertainty
323.15	1.51	.0453
333.15	1.37	.0411
343.15	1.22	.0366

System: 1,1'-[propane-1,3-diylbis(oxymethanediyl)]bis[4-(dimethylamino)pyridinium] bis{bis[(trifluoromethyl)sulfonyl]imide} + 2-propanol; phases: Liquid, Gas
Fixed: Mole fraction of 2-propanol = 0
Property: Activity coefficient of 2-propanol (Liquid); method: Chromatography
Temperature, K	Activity coefficient of 2-propanol	uncertainty
323.15	1.42	.0426
333.15	1.3	.039
343.15	1.18	.0354

System: 1,1'-[propane-1,3-diylbis(oxymethanediyl)]bis[4-(dimethylamino)pyridinium] bis{bis[(trifluoromethyl)sulfonyl]imide} + 2-methyl-1-propanol; phases: Liquid, Gas
Fixed: Mole fraction of 2-methyl-1-propanol = 0
Property: Activity coefficient of 2-methyl-1-propanol (Liquid); method: Chromatography
Temperature, K	Activity coefficient of 2-methyl-1-propanol	uncertainty
323.15	1.85	.0555
333.15	1.66	.0498
343.15	1.5	.045

System: 1,1'-[propane-1,3-diylbis(oxymethanediyl)]bis[4-(dimethylamino)pyridinium] bis{bis[(trifluoromethyl)sulfonyl]imide} + 1-butanol; phases: Liquid, Gas
Fixed: Mole fraction of 1-butanol = 0
Property: Activity coefficient of 1-butanol (Liquid); method: Chromatography
Temperature, K	Activity coefficient of 1-butanol	uncertainty
323.15	1.95	.0585
333.15	1.64	.0492
343.15	1.58	.0474

System: 1,1'-[propane-1,3-diylbis(oxymethanediyl)]bis[4-(dimethylamino)pyridinium] bis{bis[(trifluoromethyl)sulfonyl]imide} + diethyl ether; phases: Liquid, Gas
Fixed: Mole fraction of diethyl ether = 0
Property: Activity coefficient of diethyl ether (Liquid); method: Chromatography
Temperature, K	Activity coefficient of diethyl ether	uncertainty
323.15	2.46	.0738
333.15	2.47	.0741
343.15	2.43	.0729

System: 1,1'-[propane-1,3-diylbis(oxymethanediyl)]bis[4-(dimethylamino)pyridinium] bis{bis[(trifluoromethyl)sulfonyl]imide} + diisopropyl ether; phases: Liquid, Gas
Fixed: Mole fraction of diisopropyl ether = 0
Property: Activity coefficient of diisopropyl ether (Liquid); method: Chromatography
Temperature, K	Activity coefficient of diisopropyl ether	uncertainty
323.15	5.9	.177
333.15	5.72	.1716
343.15	5.65	.1695

System: 1,1'-[propane-1,3-diylbis(oxymethanediyl)]bis[4-(dimethylamino)pyridinium] bis{bis[(trifluoromethyl)sulfonyl]imide} + chloroform; phases: Liquid, Gas
Fixed: Mole fraction of chloroform = 0
Property: Activity coefficient of chloroform (Liquid); method: Chromatography
Temperature, K	Activity coefficient of chloroform	uncertainty
323.15	.67	.0201
333.15	.69	.0207
343.15	.7	.021

System: 1,1'-[propane-1,3-diylbis(oxymethanediyl)]bis[4-(dimethylamino)pyridinium] bis{bis[(trifluoromethyl)sulfonyl]imide} + dichloromethane; phases: Liquid, Gas
Fixed: Mole fraction of dichloromethane = 0
Property: Activity coefficient of dichloromethane (Liquid); method: Chromatography
Temperature, K	Activity coefficient of dichloromethane	uncertainty
323.15	.52	.0156
333.15	.54	.0162
343.15	.56	.0168

System: 1,1'-[propane-1,3-diylbis(oxymethanediyl)]bis[4-(dimethylamino)pyridinium] bis{bis[(trifluoromethyl)sulfonyl]imide} + acetonitrile; phases: Liquid, Gas
Fixed: Mole fraction of acetonitrile = 0
Property: Activity coefficient of acetonitrile (Liquid); method: Chromatography
Temperature, K	Activity coefficient of acetonitrile	uncertainty
323.15	.37	.0111
333.15	.37	.0111
343.15	.37	.0111

System: 1,1'-[propane-1,3-diylbis(oxymethanediyl)]bis[4-(dimethylamino)pyridinium] bis{bis[(trifluoromethyl)sulfonyl]imide} + nitromethane; phases: Liquid, Gas
Fixed: Mole fraction of nitromethane = 0
Property: Activity coefficient of nitromethane (Liquid); method: Chromatography
Temperature, K	Activity coefficient of nitromethane	uncertainty
323.15	.39	.0117
333.15	.39	.0117
343.15	.38	.0114

System: 1,1'-[propane-1,3-diylbis(oxymethanediyl)]bis[4-(dimethylamino)pyridinium] bis{bis[(trifluoromethyl)sulfonyl]imide} + 1-nitropropane; phases: Liquid, Gas
Fixed: Mole fraction of 1-nitropropane = 0
Property: Activity coefficient of 1-nitropropane (Liquid); method: Chromatography
Temperature, K	Activity coefficient of 1-nitropropane	uncertainty
323.15	.57	.0171
333.15	.59	.0177
343.15	.56	.0168

System: 1,1'-[propane-1,3-diylbis(oxymethanediyl)]bis[4-(dimethylamino)pyridinium] bis{bis[(trifluoromethyl)sulfonyl]imide} + pyridine; phases: Liquid, Gas
Fixed: Mole fraction of pyridine = 0
Property: Activity coefficient of pyridine (Liquid); method: Chromatography
Temperature, K	Activity coefficient of pyridine	uncertainty
323.15	.29	.0087
333.15	.31	.0093
343.15	.32	.0096

System: 1,1'-[propane-1,3-diylbis(oxymethanediyl)]bis[4-(dimethylamino)pyridinium] bis{bis[(trifluoromethyl)sulfonyl]imide} + thiophene; phases: Liquid, Gas
Fixed: Mole fraction of thiophene = 0
Property: Activity coefficient of thiophene (Liquid); method: Chromatography
Temperature, K	Activity coefficient of thiophene	uncertainty
323.15	.55	.0165
333.15	.56	.0168
343.15	.57	.0171

System: 1-benzyl-3-(propoxymethyl)-1H-imidazolium bis[(trifluoromethyl)sulfonyl]imide + pyridine; phases: Liquid, Gas
Fixed: Mole fraction of pyridine = 0
Property: Activity coefficient of pyridine (Liquid); method: Chromatography
Temperature, K	Activity coefficient of pyridine	uncertainty
333.15	.28	.0084
343.15	.29	.0087

System: 3,3'-[propane-1,3-diylbis(oxymethanediyl)]bis(2-methyl-1-octyl-1H-imidazol-3-ium) bis(dicyanamide) + 2,2,4-trimethylpentane; phases: Liquid, Gas
Fixed: Mole fraction of 2,2,4-trimethylpentane = 0
Property: Activity coefficient of 2,2,4-trimethylpentane (Liquid); method: Chromatography
Temperature, K	Activity coefficient of 2,2,4-trimethylpentane	uncertainty
323.15	11.37	.3411
333.15	10.53	.3159
343.15	9.74	.2922
