Measured thermophysical data. Liquid-liquid equilibrium of water + acetic acid + butyl butyrate at 298 K and 1 atmosphere
Source: Fluid Phase Equilib., 2015, 10.1016/j.fluid.2015.06.012
Compound 1: acetic acid, C2H4O2, purity 99.9%
Compound 2: butyl butyrate, C8H16O2, purity 98%
Compound 3: water, H2O

System: acetic acid + butyl butyrate + water; phases: Liquid mixture 1, Liquid mixture 2
Fixed: Pressure, kPa = 101
Fixed: Temperature, K = 298
Property: Mole fraction of butyl butyrate (Liquid mixture 1); method: Titration method
Mole fraction of acetic acid	Mole fraction of butyl butyrate	uncertainty
.2125	.684	.005
.3629	.5192	.005
.475	.3964	.005
.5618	.3014	.005
.6309	.2257	.005
.4309	.1027	.005
.4323	.0663	.005
.3686	.033	.005
.312	.0124	.005
.033	.0012	.005
.0713	.0019	.005
.1163	.0028	.005
.1697	.0038	.005
.2342	.005	.005
.3139	.0065	.005
.4146	.0085	.005
.5162	.0646	.005
.712	.0311	.005

System: acetic acid + butyl butyrate + water; phases: Liquid mixture 2, Liquid mixture 1
Property: Mole fraction of butyl butyrate (Liquid mixture 2); method: Chromatography
Property: Mole fraction of butyl butyrate (Liquid mixture 1); method: Chromatography
Property: Mole fraction of acetic acid (Liquid mixture 1); method: Chromatography
Temperature, K	Pressure, kPa	Mole fraction of acetic acid	Mole fraction of butyl butyrate	uncertainty	Mole fraction of butyl butyrate	uncertainty	Mole fraction of acetic acid	uncertainty
298	101.325	.0097	.0006	.002	.8005	.005	.0918	.005
298	101.325	.0165	.009	.002	.7671	.005	.1296	.005
298	101.325	.031	.0086	.002	.684	.005	.1927	.005
298	101.325	.037	.0071	.002	.5723	.005	.2821	.005
298	101.325	.0652	.0061	.002	.4515	.005	.3107	.005
298	101.325	.1171	.0051	.002	.3567	.005	.399	.005
298	101.325	.1829	.0043	.002	.1272	.005	.4073	.005
