Measured thermophysical data. Liquid-liquid equilibria for the ternary system (water + hexadecane + dipropylene glycol n-propyl ether)
Source: Fluid Phase Equilib., 2013, 10.1016/j.fluid.2013.03.002
Compound 1: water, H2O
Compound 2: n-hexadecane, C16H34, purity 99%
Compound 3: 2-propanol, 1-(1-methyl-2-propoxyethoxy)-, C9H20O3, purity 99%

System: n-hexadecane; phases: Liquid
Fixed: Pressure, kPa = 101.325
Property: Mass density, kg/m3 (Liquid); method: Vibrating tube method
Temperature, K	Mass density, kg/m3	uncertainty
293.15	773.5	.5
298.15	769.93	.5

System: n-hexadecane; phases: Liquid
Fixed: Pressure, kPa = 101.325
Property: Refractive index (Na D-line) (Liquid); method: Standard Abbe refractometry
Temperature, K	Refractive index (Na D-line)	uncertainty
293.15	1.4342	
298.15	1.4326	

System: 2-propanol, 1-(1-methyl-2-propoxyethoxy)-; phases: Liquid
Fixed: Pressure, kPa = 101.325
Property: Mass density, kg/m3 (Liquid); method: Vibrating tube method
Temperature, K	Mass density, kg/m3	uncertainty
293.15	920.14	.5
298.15	915.65	.5

System: 2-propanol, 1-(1-methyl-2-propoxyethoxy)-; phases: Liquid
Fixed: Pressure, kPa = 101.325
Property: Refractive index (Na D-line) (Liquid); method: Standard Abbe refractometry
Temperature, K	Refractive index (Na D-line)	uncertainty
293.15	1.4225	
298.15	1.4214	

System: n-hexadecane + water + 2-propanol, 1-(1-methyl-2-propoxyethoxy)-; phases: Liquid mixture 3, Liquid mixture 2, Liquid mixture 1
Property: Mass fraction of water (Liquid mixture 3); method: Chromatography
Property: Mass fraction of 2-propanol, 1-(1-methyl-2-propoxyethoxy)- (Liquid mixture 3); method: Chromatography
Property: Mass fraction of water (Liquid mixture 2); method: Chromatography
Property: Mass fraction of 2-propanol, 1-(1-methyl-2-propoxyethoxy)- (Liquid mixture 2); method: Chromatography
Property: Mass fraction of 2-propanol, 1-(1-methyl-2-propoxyethoxy)- (Liquid mixture 1); method: Chromatography
Property: Mass fraction of water (Liquid mixture 1); method: Chromatography
Temperature, K	Pressure, kPa	Mass fraction of water	uncertainty	Mass fraction of 2-propanol, 1-(1-methyl-2-propoxyethoxy)-	uncertainty	Mass fraction of water	uncertainty	Mass fraction of 2-propanol, 1-(1-methyl-2-propoxyethoxy)-	uncertainty	Mass fraction of 2-propanol, 1-(1-methyl-2-propoxyethoxy)-	uncertainty	Mass fraction of water	uncertainty
298.15	101.325	.8402	.0009	.1569	.0009	.1323	.0009	.7948	.0009	.2052	.0009	.0043	.0009
308.15	101.325	.8932	.0009	.1068	.0009	.0929	.0009	.7632	.0009	.3088	.0009	.009	.0009

System: n-hexadecane + water + 2-propanol, 1-(1-methyl-2-propoxyethoxy)-; phases: Liquid mixture 2, Liquid mixture 1
Property: Mass fraction of 2-propanol, 1-(1-methyl-2-propoxyethoxy)- (Liquid mixture 2); method: Chromatography
Property: Mass fraction of 2-propanol, 1-(1-methyl-2-propoxyethoxy)- (Liquid mixture 1); method: Chromatography
Property: Mass fraction of water (Liquid mixture 1); method: Chromatography
Temperature, K	Pressure, kPa	Mass fraction of water	Mass fraction of 2-propanol, 1-(1-methyl-2-propoxyethoxy)-	uncertainty	Mass fraction of 2-propanol, 1-(1-methyl-2-propoxyethoxy)-	uncertainty	Mass fraction of water	uncertainty
298.15	101.325	.8281	.1719	.0009	.7947	.0009	.2053	.0009
308.15	101.325	.0551	.6634	.0009	.4346	.0009	.0196	.0009
308.15	101.325	.8936	.1064	.0009	.271	.0009	.0066	.0009
308.15	101.325	.902	.098	.0009	.193	.0009	.0027	.0009
308.15	101.325	.9193	.0807	.0009	.1103	.0009	.0008	.0009
308.15	101.325	.9518	.0482	.0009	.0494	.0009	.0001	.0009
308.15	101.325	.8923	.1077	.0009	.7896	.0009	.1031	.0009
308.15	101.325	.8887	.1113	.0009	.8158	.0009	.1264	.0009
308.15	101.325	.8784	.1216	.0009	.8257	.0009	.1743	.0009
318.15	101.325	.9613	.0387	.0009	.0617	.0009	.0002	.0009
318.15	101.325	.939	.061	.0009	.1366	.0009	.001	.0009
318.15	101.325	.9294	.0706	.0009	.2161	.0009	.0035	.0009
318.15	101.325	.9252	.0748	.0009	.2952	.0009	.0073	.0009
318.15	101.325	.9241	.0759	.0009	.3762	.0009	.0128	.0009
318.15	101.325	.9239	.0761	.0009	.4614	.0009	.0219	.0009
318.15	101.325	.9239	.0761	.0009	.5428	.0009	.0326	.0009
318.15	101.325	.9235	.0765	.0009	.6188	.0009	.0449	.0009
318.15	101.325	.9235	.0765	.0009	.6688	.0009	.0544	.0009
318.15	101.325	.9232	.0768	.0009	.7304	.0009	.0649	.0009
318.15	101.325	.9202	.0798	.0009	.7942	.0009	.089	.0009
298.15	101.325	.1035	.7863	.0009	.227	.0009	.0048	.0009
318.15	101.325	.9166	.0834	.0009	.8532	.0009	.1468	.0009
298.15	101.325	.0763	.7738	.0009	.2708	.0009	.007	.0009
298.15	101.325	.8474	.1485	.0009	.152	.0009	.0022	.0009
298.15	101.325	.8837	.109	.0009	.0852	.0009	.0006	.0009
298.15	101.325	.9289	.0651	.0009	.0377	.0009	.0003	.0009
298.15	101.325	.828	.172	.0009	.8076	.0009	.1553	.0009
298.15	101.325	.8274	.1726	.0009	.8066	.0009	.174	.0009

System: water + 2-propanol, 1-(1-methyl-2-propoxyethoxy)-; phases: Liquid mixture 2, Liquid mixture 1
Property: Mass fraction of 2-propanol, 1-(1-methyl-2-propoxyethoxy)- (Liquid mixture 2); method: Chromatography
Temperature, K	Pressure, kPa	Mass fraction of 2-propanol, 1-(1-methyl-2-propoxyethoxy)-	uncertainty
298.15	101.325	.172	.0009
298.15	101.325	.1726	.0009
298.15	101.325	.1719	.0009
308.15	101.325	.1064	.0009
308.15	101.325	.098	.0009
308.15	101.325	.0807	.0009
308.15	101.325	.0482	.0009
308.15	101.325	.1077	.0009
308.15	101.325	.1113	.0009
308.15	101.325	.1216	.0009
318.15	101.325	.0387	.0009
318.15	101.325	.061	.0009
318.15	101.325	.0706	.0009
318.15	101.325	.0748	.0009
318.15	101.325	.0759	.0009
318.15	101.325	.0761	.0009
318.15	101.325	.0765	.0009
318.15	101.325	.0768	.0009
318.15	101.325	.0798	.0009
318.15	101.325	.0834	.0009

System: water + 2-propanol, 1-(1-methyl-2-propoxyethoxy)-; phases: Liquid mixture 1, Liquid mixture 2
Property: Mass fraction of water (Liquid mixture 1); method: Chromatography
Temperature, K	Pressure, kPa	Mass fraction of water	uncertainty
298.15	101.325	.2053	.0009
308.15	101.325	.1743	.0009
318.15	101.325	.1468	.0009
