Measured thermophysical data. Calorimetric and FTIR study of selected aliphatic heptanols
Source: Fluid Phase Equilib., 2016, 10.1016/j.fluid.2016.04.003
Compound 1: 1-heptanol, C7H16O, purity 98.0%
Compound 2: 3-heptanol, C7H16O, purity 99.6%
Compound 3: 4-heptanol, C7H16O, purity 99.2%
Compound 4: 2-methyl-2-hexanol, C7H16O, purity 99.0%
Compound 5: 5-methyl-2-hexanol, C7H16O, purity 99.0%
Compound 6: 2-methyl-3-hexanol, C7H16O, purity 98.2%
Compound 7: 3-ethyl-3-pentanol, C7H16O, purity 98.5%
Compound 8: 2,2-dimethyl-3-pentanol, C7H16O, purity 97.3%
Compound 9: 2,4-dimethyl-3-pentanol, C7H16O, purity 99.3%

System: 1-heptanol; phases: Liquid
Fixed: Pressure, kPa = 101.325
Property: Molar heat capacity at constant pressure, J/K/mol (Liquid); method: Tian-Calvet Calorimiter; Setaram microDSC IIIa
Temperature, K	Molar heat capacity at constant pressure, J/K/mol	uncertainty
261.15	245.8	
261.28	245.7	
265	247.9	
265	247.9	
270	251	
270	250.8	
275	254.5	
275	254.3	
280	258.2	
280	258.2	
285	262.4	
285	262.4	
290	267.1	
290	267.1	
295	271.9	
295	271.7	
300	276.6	
300	276.5	
305	281.7	
305	281.7	
310	286.8	
310	286.8	
315	292.2	
315	292.2	
320	297.5	
320	297.5	
325	303	
325	303	
330	308.5	
330	308.5	
335	313.8	
335	313.9	
340	319.1	
340	319.1	
345	324.5	
345	324.5	
350	330.3	
350	330.3	
355	335.7	
355	335.7	
360	340.6	
360	340.8	
365	345.5	
365	345.6	
370	350.2	
370	350.1	
375	354.5	
375	354.4	
380	358.8	
380	358.7	

System: 3-heptanol; phases: Liquid
Fixed: Pressure, kPa = 101.325
Property: Molar heat capacity at constant pressure, J/K/mol (Liquid); method: Tian-Calvet Calorimiter; Setaram microDSC IIIa
Temperature, K	Molar heat capacity at constant pressure, J/K/mol	uncertainty
261.41	274.7	
261.36	274.7	
265	278.9	
265	278.6	
270	284.3	
270	284	
275	289.8	
275	289.3	
280	295.4	
280	294.7	
285	300.8	
285	300.1	
290	306.5	
290	305.6	
295	312.1	
295	311	
300	317.4	
300	316.4	
305	323	
305	322.1	
310	328.8	
310	327.8	
315	334.3	
315	332.7	
320	339.9	
320	338.1	
325	345.2	
325	343.4	
330	350.3	
330	348.4	
335	354.9	
335	353	
340	359.1	
340	357.2	
345	363.2	
345	361.5	
350.01	367.3	
350	365.8	
355	370.9	
355	369.4	
360	373.9	
360	372.3	
365	376.3	
365	374.8	
370	378.1	
370	376.6	
375	379.6	
375	378.2	
380	379.5	
380	380.7	
382.85	381.1	

System: 4-heptanol; phases: Crystal, Liquid, Air at 1 atmosphere
Property: Normal melting temperature, K (Crystal); method: DSC/DTA
Normal melting temperature, K	uncertainty
235.1	.3

System: 4-heptanol; phases: Crystal, Liquid, Air at 1 atmosphere
Property: Molar enthalpy of transition or fusion, kJ/mol (Crystal); method: DSC
Molar enthalpy of transition or fusion, kJ/mol	uncertainty
8.3	.3

System: 4-heptanol; phases: Liquid
Fixed: Pressure, kPa = 101.325
Property: Molar heat capacity at constant pressure, J/K/mol (Liquid); method: Tian-Calvet Calorimiter; Setaram microDSC IIIa
Temperature, K	Molar heat capacity at constant pressure, J/K/mol	uncertainty
261.37	277.5	
261.3	277.6	
265	280.7	
265	280.8	
270	284.9	
270	285	
275	289.2	
275	289.3	
280	293.7	
280	293.7	
285	298.5	
285	298.5	
290	303.7	
290	303.9	
295	309.5	
295	309.7	
300	315.3	
300	315.5	
305	321.4	
305	321.5	
310	327.5	
310	327.7	
315	333.6	
315	333.7	
320	339.5	
320	339.6	
325	345.1	
325	345.4	
330	350.5	
330	350.7	
335	355.4	
335	355.6	
340	359.8	
340	360.2	
345	364.3	
345	364.7	
350	368.6	
350	368.8	
355	372.2	
355	372.6	
360	375.1	
360	375.5	
365	377.6	
365	378	
370	379.4	
370	379.9	
375	381	
375	381.6	
379.72	382.1	
379.76	382.6	

System: 2-methyl-2-hexanol; phases: Liquid
Fixed: Pressure, kPa = 101.325
Property: Molar heat capacity at constant pressure, J/K/mol (Liquid); method: Tian-Calvet Calorimiter; Setaram microDSC IIIa
Temperature, K	Molar heat capacity at constant pressure, J/K/mol	uncertainty
261.57	263.3	
261.95	263.7	
265	267.2	
265	267.2	
270	273.3	
270	273.3	
275	279.8	
275	279.8	
280	286.6	
280	286.6	
285	293.9	
285	293.8	
290	301.4	
290	301.4	
295	309	
295	308.9	
300	316.3	
300	316.2	
305	323.6	
305	323.5	
310	330.6	
310	330.5	
315	337.3	
315	337.2	
320	343.6	
320	343.6	
325	349.4	
325	349.4	
330	354.6	
330	354.5	
335	359.1	
335	359	
340	363.2	
340	363	
345	367.2	
345	366.8	
349.99	370.7	
350	370.2	
355	373.2	
355	372.9	
360	375.2	
360	374.9	
365	376.7	
365	376.4	
370	377.4	
370	377.2	
375	378	
375	377.6	
379.98	378.1	
380	377.8	
382.7	377.7	

System: 5-methyl-2-hexanol; phases: Liquid
Fixed: Pressure, kPa = 101.325
Property: Molar heat capacity at constant pressure, J/K/mol (Liquid); method: Tian-Calvet Calorimiter; Setaram microDSC IIIa
Temperature, K	Molar heat capacity at constant pressure, J/K/mol	uncertainty
261.83	254.7	
262.05	255.4	
265	257.7	
265	258.6	
270	263.1	
270	263.9	
275	268.6	
275	269.5	
280	274.4	
280	275.2	
285	280.3	
285	281.1	
290	286.3	
290	287.1	
295	292.1	
295	292.9	
300	297.7	
300	298.6	
305	303.4	
305	304.1	
310	308.9	
310	309.6	
315	314.2	
315	315	
320	319.4	
320	320.4	
325	324.7	
325	325.6	
330	329.8	
330	330.7	
335	334.5	
335	335.5	
340	339.1	
340	340.1	
345	343.8	
345	344.8	
350	348.5	
350	349.6	
355	352.9	
355	354	
360	356.8	
360	358	
365	360.2	
365	361.5	
370	363.3	
370	364.7	
375	366.3	
375	367.7	
379.9	368.8	
380	370.3	
382.84	371.7	

System: 2-methyl-3-hexanol; phases: Liquid
Fixed: Pressure, kPa = 101.325
Property: Molar heat capacity at constant pressure, J/K/mol (Liquid); method: Tian-Calvet Calorimiter; Setaram microDSC IIIa
Temperature, K	Molar heat capacity at constant pressure, J/K/mol	uncertainty
262.3	270.2	
261.93	270.5	
265	273.8	
265	274.5	
270	280.8	
270	281.3	
275	288.3	
275	288.8	
280	295.9	
280	296.4	
285	303.7	
285	304.2	
290	311.9	
290	312.5	
295	319.9	
295	320.6	
300	327.4	
300	328.4	
305	334.8	
305	335.6	
310	341.8	
310	342.6	
315	348.6	
315	349.1	
320	353.9	
320	354.6	
325	358.7	
325	359.5	
330	362.8	
330	363.7	
335	366.1	
335	367.2	
340	368.4	
340	369.6	
345	370.5	
345	371.7	
350	372.5	
350	373.7	
355	373.9	
355	375.1	
360	374.5	
360	375.7	
365	374.6	
365	375.8	
370	374.2	
370	375.3	
375	373.1	
375	374.2	
380	371.6	
380	372.3	
382.83	370.5	
382.85	370.8	

System: 3-ethyl-3-pentanol; phases: Crystal, Liquid, Air at 1 atmosphere
Property: Normal melting temperature, K (Crystal); method: DSC/DTA
Normal melting temperature, K	uncertainty
259.4	.3

System: 3-ethyl-3-pentanol; phases: Crystal, Liquid, Air at 1 atmosphere
Property: Molar enthalpy of transition or fusion, kJ/mol (Crystal); method: DSC
Molar enthalpy of transition or fusion, kJ/mol	uncertainty
9.5	.3

System: 3-ethyl-3-pentanol; phases: Liquid
Fixed: Pressure, kPa = 101.325
Property: Molar heat capacity at constant pressure, J/K/mol (Liquid); method: Tian-Calvet Calorimiter; Setaram microDSC IIIa
Temperature, K	Molar heat capacity at constant pressure, J/K/mol	uncertainty
262.09	290.7	
262.35	291.4	
265	297.1	
265	297.3	
270	307.8	
270	307.6	
275	318.2	
275	317	
280	328.6	
280	328.6	
285	338.9	
285	338.9	
290	348.3	
290	348.2	
295	355.4	
295	354.4	
300	361.9	
300	362.5	
305	366.8	
305	366.1	
310	370.4	
310	370.2	
315	373	
315	373	
320	374.1	
320	374.1	
325	373.2	
325	373.2	
330	372.2	
330	372.2	
335	370.7	
335	370.7	
340	368.8	
340	368.8	
345	366.6	
345	366.6	
350	364	
350	364	
355	361.3	
355	361.3	
357.86	359.7	
357.94	359.7	

System: 2,2-dimethyl-3-pentanol; phases: Crystal, Liquid, Air at 1 atmosphere
Property: Normal melting temperature, K (Crystal); method: DSC/DTA
Normal melting temperature, K	uncertainty
280.5	.3

System: 2,2-dimethyl-3-pentanol; phases: Crystal, Liquid, Air at 1 atmosphere
Property: Molar enthalpy of transition or fusion, kJ/mol (Crystal); method: DSC
Molar enthalpy of transition or fusion, kJ/mol	uncertainty
8.6	.3

System: 2,2-dimethyl-3-pentanol; phases: Liquid
Fixed: Pressure, kPa = 101.325
Property: Molar heat capacity at constant pressure, J/K/mol (Liquid); method: Tian-Calvet Calorimiter; Setaram microDSC IIIa
Temperature, K	Molar heat capacity at constant pressure, J/K/mol	uncertainty
290.23	334.3	
290.07	335.3	
295	342.6	
295	343.3	
300	352.6	
300	353.2	
305	359.4	
305	359.9	
310	365.2	
310	366.3	
315	371.1	
315	372.3	
320	374.5	
320	375.9	
325	376.6	
325	378.1	
330	378	
330	378.6	
335	378.4	
335	378.9	
340	378	
340	377.3	
345	376.7	
345	375.8	
350	374.3	
350	374.8	
355	372.7	
355	373.1	
358	370.6	
357.99	371.7	

System: 2,4-dimethyl-3-pentanol; phases: Crystal, Liquid, Air at 1 atmosphere
Property: Normal melting temperature, K (Crystal); method: DSC/DTA
Normal melting temperature, K	uncertainty
260.7	.3

System: 2,4-dimethyl-3-pentanol; phases: Crystal, Liquid, Air at 1 atmosphere
Property: Molar enthalpy of transition or fusion, kJ/mol (Crystal); method: DSC
Molar enthalpy of transition or fusion, kJ/mol	uncertainty
5.9	.3

System: 2,4-dimethyl-3-pentanol; phases: Liquid
Fixed: Pressure, kPa = 101.325
Property: Molar heat capacity at constant pressure, J/K/mol (Liquid); method: Tian-Calvet Calorimiter; Setaram microDSC IIIa
Temperature, K	Molar heat capacity at constant pressure, J/K/mol	uncertainty
261.4	282.6	
262.32	284.4	
265	290.1	
265	290.1	
270	300.7	
270	300.8	
275	312	
275	311.8	
280	323	
280	322.9	
285	333.7	
285	333.7	
290	344.3	
290	344.2	
295	353.8	
295	353.8	
300	362	
300	361.9	
305	368.9	
305	369	
310	374.4	
310	374.3	
315	378.4	
315	378.3	
320	380.9	
320	380.9	
325	382.4	
325	382.2	
330	382.5	
330	382.3	
335	381.7	
335	380.9	
340	380.1	
340	378.7	
345	378.5	
345	376.5	
350.01	376.9	
350	374.6	
355	374.7	
355	372.7	
360	372.3	
360	371.4	
365	369.9	
365	369.2	
370	367.5	
370	366.9	
375	365.4	
375	365	
380	363.7	
380	362.2	
382.85	362.8	
382.59	362.3	
