Measured thermophysical data. Solubility of DL-malic acid in water, ethanol and in mixtures of ethanol + water
Source: Fluid Phase Equilib., 2014, 10.1016/j.fluid.2014.06.017
Compound 1: water, H2O
Compound 2: ethanol, C2H6O, purity 99.7%
Compound 3: dl-malic acid, C4H6O5, purity 99.5%

System: dl-malic acid + water; phases: Liquid, Crystal
Fixed: Pressure, kPa = 101
Property: Mole fraction of dl-malic acid (Liquid); method: Titration method
Temperature, K	Mole fraction of dl-malic acid	uncertainty
298.15	.15	.001
303.15	.161	.001
308.15	.178	.001
313.15	.196	.001
318.15	.213	.001
323.15	.229	.001
328.15	.249	.001
333.15	.271	.001

System: ethanol + dl-malic acid; phases: Liquid, Crystal
Fixed: Pressure, kPa = 101
Property: Mole fraction of dl-malic acid (Liquid); method: Titration method
Temperature, K	Mole fraction of dl-malic acid	uncertainty
298.15	.109	.001
303.15	.12	.001
308.15	.136	.001
313.15	.148	.001
318.15	.165	.001
323.15	.184	.001
328.15	.207	.001
333.15	.227	.001

System: ethanol + dl-malic acid + water; phases: Liquid, Crystal
Fixed: Pressure, kPa = 101
Property: Mole fraction of dl-malic acid (Liquid); method: Titration method
Solvent: Mass fraction of ethanol	Temperature, K	Mole fraction of dl-malic acid	uncertainty
0	298.15	.568	.001
0	303.15	.5889	.001
0	308.15	.6163	.001
0	313.15	.644	.001
0	318.15	.668	.001
0	323.15	.689	.001
0	328.15	.7111	.001
0	333.15	.7344	.001
.1	298.15	.5628	.001
.1	303.15	.5862	.001
.1	308.15	.6126	.001
.1	313.15	.6329	.001
.1	318.15	.6526	.001
.1	323.15	.6756	.001
.1	328.15	.6941	.001
.1	333.15	.7133	.001
.2	298.15	.5524	.001
.2	303.15	.5757	.001
.2	308.15	.6015	.001
.2	313.15	.6227	.001
.2	318.15	.6419	.001
.2	323.15	.6597	.001
.2	328.15	.6821	.001
.2	333.15	.7	.001
.3	298.15	.5398	.001
.3	303.15	.5623	.001
.3	308.15	.5853	.001
.3	313.15	.6089	.001
.3	318.15	.6282	.001
.3	323.15	.6481	.001
.3	328.15	.6687	.001
.3	333.15	.6876	.001
.4	298.15	.5207	.001
.4	303.15	.5465	.001
.4	308.15	.5682	.001
.4	313.15	.5934	.001
.4	318.15	.6118	.001
.4	323.15	.6318	.001
.4	328.15	.6538	.001
.4	333.15	.6705	.001
.5	298.15	.5011	.001
.5	303.15	.5272	.001
.5	308.15	.5472	.001
.5	313.15	.571	.001
.5	318.15	.5901	.001
.5	323.15	.6118	.001
.5	328.15	.634	.001
.5	333.15	.6502	.001
.6	298.15	.4782	.001
.6	303.15	.4887	.001
.6	308.15	.5131	.001
.6	313.15	.536	.001
.6	318.15	.5555	.001
.6	323.15	.5858	.001
.6	328.15	.6033	.001
.6	333.15	.624	.001
.7	298.15	.4489	.001
.7	303.15	.469	.001
.7	308.15	.4882	.001
.7	313.15	.5117	.001
.7	318.15	.5316	.001
.7	323.15	.5546	.001
.7	328.15	.5732	.001
.7	333.15	.5948	.001
.8	298.15	.4065	.001
.8	303.15	.4271	.001
.8	308.15	.4468	.001
.8	313.15	.4725	.001
.8	318.15	.4938	.001
.8	323.15	.5145	.001
.8	328.15	.5315	.001
.8	333.15	.5563	.001
.9	298.15	.3461	.001
.9	303.15	.3645	.001
.9	308.15	.3898	.001
.9	313.15	.4122	.001
.9	318.15	.4355	.001
.9	323.15	.4611	.001
.9	328.15	.4837	.001
.9	333.15	.5123	.001
1	298.15	.2622	.001
1	303.15	.2836	.001
1	308.15	.3143	.001
1	313.15	.3365	.001
1	318.15	.3647	.001
1	323.15	.3965	.001
1	328.15	.4311	.001
1	333.15	.4607	.001
