Measured thermophysical data. Viscosity and density measurements of compressed liquid dimethyl adipate using oscillating body techniques
Source: Fluid Phase Equilib., 2014, 10.1016/j.fluid.2014.01.030
Compound 1: dimethyl adipate, C8H14O4, purity 99%

System: dimethyl adipate; phases: Liquid
Property: Mass density, kg/m3 (Liquid); method: Vibrating tube method
Temperature, K	Pressure, kPa	Mass density, kg/m3	uncertainty
293.15	100	1061.2	2.1224
293.15	4990	1064.2	2.1284
293.15	10010	1067.3	2.1346
293.15	20020	1073.2	2.1464
293.15	25000	1076	2.152
293.15	14980	1070.3	2.1406
293.15	7490	1065.8	2.1316
293.15	5000	1064.3	2.1286
293.15	2510	1062.8	2.1256
323.15	100	1031.9	2.0638
323.15	4990	1035.5	2.071
323.15	10060	1039.1	2.0782
323.15	20020	1045.8	2.0916
323.15	24990	1049	2.098
323.15	15010	1042.5	2.085
323.15	7490	1037.3	2.0746
323.15	5000	1035.5	2.071
323.15	2540	1033.7	2.0674
358.15	100	997.6	1.9952
358.15	4980	1001.9	2.0038
358.15	9980	1006.1	2.0122
358.15	20030	1014.2	2.0284
358.15	25000	1018	2.036
358.15	15030	1010.3	2.0206
358.15	7500	1004.1	2.0082
358.15	5020	1002	2.004
358.15	2500	999.8	1.9996
303.15	100	1051.5	2.103
303.15	5010	1054.7	2.1094
303.15	9990	1057.9	2.1158
303.15	20000	1064	2.128
303.15	25000	1067	2.134
303.15	15010	1061	2.122
303.15	7510	1056.3	2.1126
303.15	5010	1054.7	2.1094
303.15	2510	1053.1	2.1062
333.15	100	1022.1	2.0442
333.15	5010	1026	2.052
333.15	10020	1029.7	2.0594
333.15	20030	1036.8	2.0736
333.15	24920	1040.1	2.0802
333.15	15000	1033.2	2.0664
333.15	7490	1027.8	2.0556
333.15	5040	1026	2.052
333.15	2520	1024.1	2.0482
293.15	100	1061.2	2.1224
293.15	5020	1064.3	2.1286
293.15	10020	1067.3	2.1346
293.15	20240	1073.3	2.1466
293.15	25010	1076	2.152
293.15	15030	1070.3	2.1406
293.15	7570	1065.9	2.1318
293.15	5030	1064.3	2.1286
293.15	2540	1062.8	2.1256
313.15	100	1041.8	2.0836
313.15	5020	1045.2	2.0904
313.15	10010	1048.5	2.097
313.15	20020	1054.9	2.1098
313.15	25000	1058	2.116
313.15	15010	1051.7	2.1034
313.15	7520	1046.8	2.0936
313.15	5020	1045.1	2.0902
313.15	2520	1043.5	2.087
343.15	100	1012.4	2.0248
343.15	5010	1016.3	2.0326
343.15	9990	1020.2	2.0404
343.15	20000	1027.7	2.0554
343.15	24990	1031.2	2.0624
343.15	15010	1024	2.048
343.15	7530	1018.3	2.0366
343.15	5000	1016.3	2.0326
343.15	2500	1014.3	2.0286

System: dimethyl adipate; phases: Liquid
Property: Viscosity, Pa*s (Liquid); method: Capillary tube (Ostwald; Ubbelohde) method
Temperature, K	Pressure, kPa	Viscosity, Pa*s	uncertainty
303.05	100	.002643	.000039645
312.97	100	.002142	.00003213
322.9	100	.001791	.000026865

System: dimethyl adipate; phases: Liquid
Property: Viscosity, Pa*s (Liquid); method: Vibrating wire viscometry
Temperature, K	Pressure, kPa	Viscosity, Pa*s	uncertainty
293.15	1130	.003404	.00003404
293.14	1140	.003392	.00003392
293.13	1130	.003393	.00003393
293.14	1130	.003398	.00003398
293.14	1130	.003403	.00003403
293.15	2610	.003455	.00003455
293.15	2620	.003448	.00003448
293.15	2620	.003452	.00003452
293.14	2580	.003458	.00003458
293.14	2580	.003458	.00003458
293.14	2570	.003447	.00003447
293.14	2580	.00345	.0000345
293.15	5160	.003526	.00003526
293.15	5160	.003526	.00003526
293.15	5160	.003531	.00003531
293.15	5160	.003521	.00003521
293.15	5160	.00353	.0000353
293.14	7680	.003589	.00003589
293.15	7660	.003587	.00003587
293.14	10180	.003669	.00003669
293.14	10170	.003669	.00003669
293.14	10180	.003671	.00003671
293.14	15200	.003868	.00003868
293.14	15200	.003858	.00003858
293.14	15190	.003867	.00003867
293.14	15190	.003868	.00003868
293.15	15200	.003856	.00003856
293.14	20200	.004036	.00004036
293.14	20200	.004045	.00004045
293.14	20200	.004036	.00004036
303.17	1190	.002664	.00002664
303.17	1190	.002661	.00002661
303.17	1190	.002666	.00002666
303.18	1190	.002663	.00002663
303.2	2680	.00271	.0000271
303.2	2680	.00271	.0000271
303.2	2660	.002707	.00002707
303.19	2680	.002707	.00002707
303.2	2680	.00271	.0000271
303.18	2680	.002704	.00002704
303.17	2680	.002705	.00002705
303.17	2680	.002701	.00002701
303.17	5310	.002768	.00002768
303.17	5310	.002766	.00002766
303.18	5310	.002766	.00002766
303.18	5310	.00276	.0000276
303.18	5310	.002769	.00002769
303.18	5490	.002769	.00002769
303.17	5380	.002767	.00002767
303.17	5420	.00277	.0000277
303.17	5440	.002772	.00002772
303.17	5470	.002773	.00002773
303.17	7700	.00282	.0000282
303.18	7700	.002821	.00002821
303.18	7690	.00282	.0000282
303.18	7690	.00282	.0000282
303.18	10260	.002892	.00002892
303.18	10240	.002883	.00002883
303.17	10190	.002881	.00002881
303.18	10170	.002887	.00002887
303.18	10180	.002883	.00002883
303.18	15230	.00302	.0000302
303.18	15220	.003013	.00003013
303.18	15210	.003011	.00003011
303.18	15200	.003016	.00003016
303.18	15190	.003011	.00003011
303.18	15180	.003008	.00003008
303.18	20170	.003146	.00003146
303.18	20180	.003151	.00003151
303.18	20170	.003147	.00003147
303.18	20170	.003149	.00003149
303.18	20170	.003146	.00003146
303.18	20170	.003146	.00003146
313.14	1110	.002168	.00002168
313.14	1110	.002167	.00002167
313.14	1110	.002166	.00002166
313.15	1110	.00217	.0000217
313.15	1110	.002166	.00002166
313.15	1110	.002164	.00002164
313.14	2650	.002195	.00002195
313.15	2660	.002194	.00002194
313.14	2660	.002197	.00002197
313.14	2660	.002197	.00002197
313.14	2670	.002195	.00002195
313.14	2670	.002198	.00002198
313.14	5160	.002242	.00002242
313.14	5160	.00224	.0000224
313.14	5160	.002241	.00002241
313.14	5160	.002245	.00002245
313.14	5160	.002238	.00002238
313.14	5160	.002243	.00002243
313.14	5130	.002246	.00002246
313.14	5120	.00224	.0000224
313.14	5120	.002245	.00002245
313.14	5120	.002246	.00002246
313.14	5120	.002239	.00002239
313.14	5110	.002242	.00002242
313.14	7670	.002287	.00002287
313.14	7670	.002291	.00002291
313.14	7670	.002292	.00002292
313.14	7670	.002296	.00002296
313.14	7670	.00229	.0000229
313.14	7670	.00229	.0000229
313.13	10210	.002342	.00002342
313.14	10200	.002342	.00002342
313.14	10190	.002342	.00002342
313.14	10190	.002342	.00002342
313.14	10180	.002337	.00002337
313.14	10170	.002337	.00002337
313.14	15200	.002444	.00002444
313.14	15200	.002442	.00002442
313.14	15200	.002438	.00002438
313.14	15200	.002441	.00002441
313.14	15200	.002445	.00002445
313.14	20190	.002536	.00002536
313.14	20180	.002542	.00002542
313.14	20170	.002542	.00002542
313.14	20170	.002539	.00002539
313.14	20170	.002537	.00002537
313.14	20180	.002539	.00002539
323.15	1180	.001801	.00001801
323.15	1180	.001799	.00001799
323.15	1180	.0018	.000018
323.15	1170	.001803	.00001803
323.15	1180	.001801	.00001801
323.15	1180	.001803	.00001803
323.15	2630	.00182	.0000182
323.15	2640	.001822	.00001822
323.15	2640	.00182	.0000182
323.15	2640	.001823	.00001823
323.15	2640	.001821	.00001821
323.16	2650	.001821	.00001821
323.15	5150	.001861	.00001861
323.15	5150	.001862	.00001862
323.15	5150	.001857	.00001857
323.15	5140	.001862	.00001862
323.15	5140	.001864	.00001864
323.16	5130	.001862	.00001862
323.15	5160	.001863	.00001863
323.16	5160	.001861	.00001861
323.16	5160	.00186	.0000186
323.16	5150	.001857	.00001857
323.14	5150	.001859	.00001859
323.15	5140	.001859	.00001859
323.15	7690	.001904	.00001904
323.15	7680	.0019	.000019
323.15	7680	.001902	.00001902
323.15	7680	.001902	.00001902
323.15	7670	.001903	.00001903
323.16	7670	.001902	.00001902
323.15	10190	.001939	.00001939
323.15	10190	.001939	.00001939
323.15	10180	.001942	.00001942
323.15	10180	.001943	.00001943
323.15	10180	.001943	.00001943
323.15	10170	.001942	.00001942
323.15	15190	.002019	.00002019
323.15	15190	.00202	.0000202
323.15	15180	.002024	.00002024
323.15	15180	.002017	.00002017
323.15	15180	.002021	.00002021
323.15	15180	.00202	.0000202
323.15	20190	.002108	.00002108
323.15	20190	.0021	.000021
323.15	20180	.002105	.00002105
323.15	20180	.002106	.00002106
323.15	20170	.002107	.00002107
323.15	20170	.002102	.00002102
333.14	1180	.001524	.00001524
333.14	1180	.001525	.00001525
333.14	1180	.001524	.00001524
333.14	1170	.001527	.00001527
333.14	1170	.001527	.00001527
333.14	1180	.001526	.00001526
333.14	2700	.001542	.00001542
333.14	2700	.001544	.00001544
333.14	2700	.00154	.0000154
333.14	2700	.001543	.00001543
333.14	2690	.00154	.0000154
333.14	2690	.001545	.00001545
333.14	5160	.001575	.00001575
333.14	5150	.001577	.00001577
333.14	5140	.001571	.00001571
333.14	5090	.001574	.00001574
333.14	5090	.001572	.00001572
333.14	5070	.001574	.00001574
333.14	5160	.001575	.00001575
333.14	5160	.001576	.00001576
333.14	5150	.001574	.00001574
333.14	5150	.001577	.00001577
333.14	5140	.001577	.00001577
333.14	5140	.001577	.00001577
333.15	7670	.001606	.00001606
333.15	7660	.001606	.00001606
333.14	7660	.001609	.00001609
333.15	7660	.001606	.00001606
333.15	7660	.001609	.00001609
333.15	7650	.001605	.00001605
333.14	10180	.001639	.00001639
333.14	10170	.001643	.00001643
333.14	10170	.00164	.0000164
333.14	10170	.001642	.00001642
333.14	10170	.001638	.00001638
333.14	10130	.001641	.00001641
333.15	15180	.001709	.00001709
333.14	15190	.001708	.00001708
333.14	15190	.001709	.00001709
333.15	15190	.001709	.00001709
333.15	15190	.001712	.00001712
333.14	15190	.00171	.0000171
333.14	20200	.001776	.00001776
333.14	20200	.001778	.00001778
333.14	20200	.001777	.00001777
333.14	20200	.001777	.00001777
333.14	20190	.001781	.00001781
333.14	20200	.001776	.00001776
343.27	1160	.001306	.00001306
343.27	1160	.001306	.00001306
343.28	1150	.001306	.00001306
343.27	1150	.001307	.00001307
343.27	1140	.001305	.00001305
343.28	1140	.001308	.00001308
343.27	2690	.001324	.00001324
343.27	2690	.001323	.00001323
343.27	2680	.001323	.00001323
343.27	2670	.001325	.00001325
343.27	2640	.001324	.00001324
343.28	2640	.001323	.00001323
343.25	2570	.001319	.00001319
343.26	2560	.001323	.00001323
343.25	2560	.001321	.00001321
343.25	2550	.001322	.00001322
343.25	2550	.001321	.00001321
343.25	2540	.001323	.00001323
343.27	5150	.001347	.00001347
343.27	5140	.001352	.00001352
343.27	5130	.00135	.0000135
343.27	5100	.001351	.00001351
343.27	5080	.00135	.0000135
343.27	5070	.001351	.00001351
343.28	7670	.00138	.0000138
343.27	7660	.001381	.00001381
343.27	7660	.001378	.00001378
343.27	7660	.001377	.00001377
343.24	7680	.001382	.00001382
343.27	7660	.001378	.00001378
343.25	10180	.001406	.00001406
343.25	10180	.001405	.00001405
343.25	10180	.001408	.00001408
343.25	10180	.001408	.00001408
343.25	10190	.001405	.00001405
343.25	10180	.001407	.00001407
343.26	15200	.001465	.00001465
343.25	15200	.001465	.00001465
343.25	15170	.001463	.00001463
343.25	15190	.001466	.00001466
343.25	15060	.00146	.0000146
343.26	20200	.001523	.00001523
343.27	20200	.001519	.00001519
343.25	20200	.001518	.00001518
343.25	20210	.001518	.00001518
358.09	1070	.001065	.00001065
358.09	1060	.001066	.00001066
358.1	1050	.001067	.00001067
358.09	1040	.001066	.00001066
358.09	1030	.001066	.00001066
358.1	1020	.001067	.00001067
358.1	2660	.00108	.0000108
358.1	2660	.001077	.00001077
358.1	2660	.001079	.00001079
358.1	2660	.001079	.00001079
358.1	2670	.001078	.00001078
358.1	2660	.001081	.00001081
358.08	2640	.001077	.00001077
358.08	2630	.001079	.00001079
358.08	2640	.001077	.00001077
358.08	2640	.00108	.0000108
358.08	2640	.001079	.00001079
358.08	2640	.001079	.00001079
358.1	5160	.001101	.00001101
358.09	5160	.001101	.00001101
358.1	5150	.001102	.00001102
358.09	5150	.001103	.00001103
358.1	5150	.001101	.00001101
358.09	5150	.001102	.00001102
358.09	7670	.001124	.00001124
358.08	7670	.001125	.00001125
358.09	7670	.001124	.00001124
358.09	7670	.001123	.00001123
358.09	7670	.001126	.00001126
358.08	10190	.001147	.00001147
358.09	10180	.001148	.00001148
358.08	10180	.001145	.00001145
358.08	10180	.001148	.00001148
358.08	10180	.001149	.00001149
358.08	10180	.001147	.00001147
358.09	15200	.001194	.00001194
358.09	15200	.001195	.00001195
358.09	15200	.001195	.00001195
358.09	15200	.001193	.00001193
358.09	15200	.001196	.00001196
358.09	15200	.001195	.00001195
358.09	20210	.001242	.00001242
358.09	20210	.00124	.0000124
358.09	20210	.001241	.00001241
358.09	20210	.00124	.0000124
358.09	20210	.001241	.00001241
358.09	20200	.001239	.00001239
303.18	1190	.002669	.00002669
303.18	1190	.002667	.00002667
303.18	1180	.002665	.00002665
303.17	1190	.002664	.00002664
303.17	2640	.002717	.00002717
303.17	2640	.002713	.00002713
303.17	2640	.002711	.00002711
303.17	2630	.002713	.00002713
303.17	2640	.002717	.00002717
303.17	5170	.002776	.00002776
303.18	5170	.002765	.00002765
303.18	5160	.002772	.00002772
303.18	5170	.00277	.0000277
303.17	5160	.002777	.00002777
