Measured thermophysical data. Measurement of speed of sound and thermal diffusivity of ethyl heptanoate using light scattering method
Source: Fluid Phase Equilib., 2017, 10.1016/j.fluid.2016.10.006
Compound 1: ethyl heptanoate, C9H18O2, purity 99%

System: ethyl heptanoate; phases: Liquid
Property: Speed of sound, m/s (Liquid); method: Light diffraction method
Temperature, K	Pressure, kPa	Speed of sound, m/s	uncertainty
293.27	110	1254.03	
303.2	100	1219.89	
313.04	90	1185.84	
323.08	110	1145.28	
332.61	100	1119.94	
343.14	100	1075.42	
353.04	110	1044.19	
363.11	100	1008.42	
372.84	90	971.9	
382.87	100	941.96	
392.49	100	909.29	
401.72	110	876.2	
412.92	100	837.29	
422.78	110	800.01	
432.75	100	768.89	
441.74	90	736.98	
452.13	100	703.21	
293.55	1040	1263.87	
302.87	1020	1230.26	
313.07	1000	1189.64	
323.15	1020	1154.57	
332.75	980	1123.74	
343.15	1020	1086.84	
352.67	1000	1053.08	
362.35	1010	1014.12	
371.83	1020	987.06	
382.34	1020	948.49	
392.73	980	912.95	
401.77	1030	883.74	
412.69	1050	841.82	
422.42	1000	807.44	
432.36	1120	778.68	
441.56	1020	750.38	
451.89	990	714.64	
462.89	1110	677.9	
471.98	1010	647.85	
482.54	1000	610.64	
293.4	2560	1278.44	
303.46	2500	1233.57	
313.11	2510	1200.03	
323.11	2490	1164.66	
332.84	2500	1127.35	
451.94	2540	731.06	
463.03	2520	699.91	
472.16	2540	667.91	
482.35	2490	636.04	
293.2	4000	1290.82	
303	4050	1253.21	
312.99	4070	1207.7	
323.12	3990	1173.82	
332.85	4010	1140.43	
343.2	4050	1101.44	
352.64	4010	1073.47	
362.37	4060	1038.84	
371.97	4040	1005.36	
382.36	3940	970.18	
392.65	4020	936.25	
401.75	4030	907.66	
412.64	4050	868.48	
422.45	4040	836.46	
432.43	4070	805.62	
441.62	4050	783.09	
452.05	4040	748.01	
463.13	4040	714.4	
472.23	4040	687.28	
483.02	4020	655.14	
293.74	5550	1291.01	
303.04	5540	1254	
313.12	5550	1223.42	
323.12	5530	1181.98	
333.57	5530	1140.54	
343.18	5510	1114.79	
352.7	5540	1079	
362.26	5530	1045.42	
372	5590	1016.18	
382.32	5500	983.52	
392.67	5520	946.64	
401.62	5620	919.87	
412.54	5550	885.03	
422.48	5560	854.66	
432.45	5500	819.99	
441.62	5570	795.09	
452.08	5580	763.54	
463.22	5530	728.32	
382.36	7030	991.78	
392.69	6990	960.26	
401.59	6980	932.15	
412.71	7010	898.63	
422.53	6970	866.85	
432.47	6990	831.89	
441.61	7020	810.86	
452.07	7050	781.2	
463.25	7020	748.5	
472.22	7040	716.46	
483.13	7020	690.38	
294.07	8560	1302.85	
303.06	8580	1271.63	
313.03	8520	1229.84	
323.14	8520	1198.91	
332.87	8520	1168.42	
343.18	8540	1133.1	
352.86	8580	1098.06	
362.06	8560	1073.66	
372	8580	1035.47	
382.4	8550	1003.61	
392.72	8520	974.33	
401.43	8550	945.5	
412.77	8460	910.68	
422.49	8460	880.79	
432.5	8520	845.66	
441.61	8500	822.18	
452.07	8500	791.7	
463.26	8550	758.92	
472.22	8560	727.9	
483.34	8540	700.94	
293.99	10050	1302.01	
303.06	10060	1275.7	
313.06	9950	1235.73	
323.14	9970	1202.86	
332.88	10020	1171.25	
343.18	10030	1146.59	
352.81	9950	1114.93	
362.02	9960	1086.09	
372	9980	1054.29	
382.38	10030	1013.95	
392.7	10020	988.42	
342.92	2540	1095.65	
352.61	2510	1056.91	
362.38	2500	1028.17	
371.91	2580	995.52	
382.38	2510	958.12	
392.65	2490	924.2	
401.7	2510	892.06	
412.73	2540	858.95	
422.35	2540	826.98	
432.43	2500	790.22	
441.59	2560	766.2	
472.22	5550	706.95	
483.07	5540	677.03	
293.91	7040	1299.58	
303.06	7040	1262.89	
313.09	7070	1225.84	
323.13	7000	1188.04	
332.88	7010	1156.97	
343.18	7060	1119.21	
352.76	7070	1088.79	
361.99	7040	1061.57	
372	7060	1029.84	
401.51	10090	955.49	
412.74	10010	920.21	
422.51	9930	896.93	
432.49	10010	865.32	
441.61	10030	837.4	
452.07	10040	804.8	
463.25	10030	765.58	
472.22	10050	743.93	
483.14	10030	706.31	

System: ethyl heptanoate; phases: Liquid
Property: Thermal diffusivity, m2/s (Liquid); method: dynamic light scattering
Temperature, K	Pressure, kPa	Thermal diffusivity, m2/s	uncertainty
293.93	990	.0000000797	
303.69	980	.0000000768	
313.18	990	.000000074	
324.01	1000	.0000000713	
333.34	1010	.0000000692	
343.17	1020	.0000000677	
353.14	1020	.0000000661	
362.36	1010	.0000000644	
372.12	1000	.0000000629	
381.92	1030	.0000000617	
393.17	980	.00000006	
402.54	990	.000000059	
413.48	970	.0000000581	
425.33	1020	.0000000572	
433.78	1010	.0000000565	
440.9	990	.0000000561	
451.97	990	.000000056	
462.92	1010	.0000000551	
471.81	980	.0000000549	
481.66	970	.0000000541	
293.34	3970	.0000000797	
302.68	3990	.000000077	
313.29	4020	.0000000748	
323.85	4010	.0000000725	
333.45	4000	.0000000706	
343.22	4030	.0000000679	
353.16	4020	.000000066	
362.27	3980	.0000000654	
372.14	3970	.0000000631	
382.29	4000	.0000000624	
393.44	4010	.0000000615	
402.56	3970	.0000000599	
413.85	3990	.0000000594	
424.79	4030	.0000000576	
432.6	4020	.0000000575	
440.85	4010	.0000000567	
452.25	3980	.0000000566	
463.08	3980	.0000000563	
471.96	4030	.0000000552	
482.88	4020	.0000000551	
293.64	7010	.0000000808	
303.19	7020	.0000000774	
313.24	7030	.0000000747	
323.93	7010	.0000000724	
333.39	6980	.0000000705	
343.2	6990	.0000000689	
353.15	6980	.0000000672	
362.32	6990	.0000000657	
372.13	7020	.0000000637	
382.11	7020	.0000000629	
393.31	7010	.0000000616	
402.55	6980	.0000000608	
413.66	6990	.0000000599	
425.06	6990	.0000000589	
433.19	7000	.0000000579	
440.87	7000	.0000000579	
452.11	7010	.0000000573	
463	7020	.0000000568	
471.89	6980	.0000000564	
482.27	6970	.0000000559	
293.43	10030	.0000000806	
303.24	10040	.0000000779	
313.26	10020	.0000000752	
323.97	9980	.0000000727	
333.37	9990	.0000000707	
343.18	9990	.0000000692	
353.15	10040	.0000000675	
362.34	9960	.0000000655	
372.13	9970	.0000000645	
382.01	9960	.000000063	
393.24	9970	.0000000619	
402.54	10000	.0000000607	
413.57	10010	.00000006	
425.2	10020	.0000000592	
433.48	10030	.0000000587	
440.89	9970	.0000000584	
452.04	9980	.0000000578	
462.96	9970	.0000000573	
471.85	9960	.0000000567	
481.97	10000	.0000000565	

System: ethyl heptanoate; phases: Liquid, Gas
Property: Speed of sound, m/s (Liquid); method: Light diffraction method
Temperature, K	Speed of sound, m/s	uncertainty
292.99	1253.58	
303.52	1215.54	
313	1184.65	
323.02	1146.86	
332.48	1118.05	
343.13	1075.33	
353.41	1041.07	
363.87	1007.06	
373.85	969.4	
383.4	936.34	
392.26	908.72	
401.68	875.58	
413.15	836.45	
423.15	799.82	
433.15	768.52	
441.91	734.29	
452.38	700.06	
461.17	668.69	
471.01	634.25	
482.82	594.13	

System: ethyl heptanoate; phases: Liquid, Gas
Property: Thermal diffusivity, m2/s (Liquid); method: dynamic light scattering
Temperature, K	Thermal diffusivity, m2/s	uncertainty
293.22	.0000000793	
303.29	.0000000758	
313.28	.0000000738	
324.01	.0000000714	
333.34	.0000000686	
343.17	.0000000674	
353.14	.0000000656	
362.36	.0000000636	
372.12	.000000063	
381.92	.0000000616	
393.17	.0000000595	
402.54	.0000000587	
413.48	.0000000576	
425.33	.0000000573	
433.78	.0000000562	
440.9	.000000056	
451.97	.0000000555	
462.92	.000000055	
471.81	.000000054	
481.66	.0000000536	
