Measured thermophysical data. Isothermal vapor-liquid equilibrium of R170 + n-perfluorooctane at 308 - 338 K: Measurement, equation of state modelling, and molecular simulation
Source: Fluid Phase Equilib., 2013, 10.1016/j.fluid.2013.01.017
Compound 1: ethane, C2H6
Compound 2: octadecafluorooctane, C8F18

System: octadecafluorooctane; phases: Liquid, Gas
Property: Vapor or sublimation pressure, kPa (Liquid); method: Closed cell (Static) method
Temperature, K	Vapor or sublimation pressure, kPa	uncertainty
308.45	6.1	5.8
318.42	10.1	5.8
323.48	12.8	5.8
328.48	16	5.8
338.43	24.3	5.8

System: ethane + octadecafluorooctane; phases: Liquid, Gas
Property: Vapor or sublimation pressure, kPa (Liquid); method: Closed cell (Static) method
Mole fraction of ethane	Temperature, K	Vapor or sublimation pressure, kPa	uncertainty
0	308.45	6.1	5.8
.1146	308.45	577.3	5.8
.1905	308.45	982.9	5.8
.274	308.45	1408.3	5.8
.347	308.45	1797.4	5.8
.422	308.45	2238.8	5.8
.531	308.45	2752.7	5.8
.641	308.45	3243.3	5.8
.777	308.45	3782.5	5.8
.8825	308.45	4227.3	5.8
.97	308.45	4779.2	5.8
0	318.42	10.1	5.8
.1248	318.42	714.6	5.8
.205	318.42	1171.2	5.8
.296	318.42	1695.9	5.8
.367	318.42	2185	5.8
.449	318.42	2659.3	5.8
.539	318.42	3165.6	5.8
.632	318.42	3651.4	5.8
.7301	318.42	4149.3	5.8
.8577	318.42	4799.3	5.8
.9658	318.42	5476.6	5.8
0	323.48	12.8	5.8
.1039	323.48	599.1	5.8
.1894	323.48	1105.9	5.8
.2553	323.48	1523.7	5.8
.338	323.48	2103.4	5.8
.432	323.48	2666.1	5.8
.523	323.48	3259.6	5.8
.625	323.48	3848.1	5.8
.7199	323.48	4367	5.8
.8472	323.48	5083.8	5.8
0	328.48	16	5.8
.13	328.48	806.1	5.8
.205	328.48	1281.4	5.8
.29	328.48	1818.1	5.8
.367	328.48	2351.5	5.8
.445	328.48	2893.7	5.8
.511	328.48	3394.2	5.8
.608	328.48	4040	5.8
.6844	328.48	4574	5.8
.781	328.48	5304.3	5.8
0	338.43	24.3	5.8
.096	338.43	623.3	5.8
.1799	338.43	1184.1	5.8
.252	338.43	1700.5	5.8
.329	338.43	2280	5.8
.401	338.43	2835.8	5.8
.469	338.43	3365.5	5.8
.533	338.43	3899.1	5.8
.5966	338.43	4416.9	5.8
.6648	338.43	4972.3	5.8
.7424	338.43	5691.6	5.8

System: ethane + octadecafluorooctane; phases: Gas, Liquid
Property: Mole fraction of ethane (Gas); method: Chromatography
Mole fraction of ethane	Temperature, K	Mole fraction of ethane	uncertainty
0	308.45	0	.02
.1146	308.45	.9885	.02
.1905	308.45	.9924	.02
.274	308.45	.9939	.02
.347	308.45	.9943	.02
.422	308.45	.9942	.02
.531	308.45	.9943	.02
.641	308.45	.9937	.02
.777	308.45	.9931	.02
.8825	308.45	.9919	.02
.97	308.45	.9915	.02
0	318.42	0	.02
.1248	318.42	.983	.02
.205	318.42	.9874	.02
.296	318.42	.9904	.02
.367	318.42	.9923	.02
.449	318.42	.9919	.02
.539	318.42	.9925	.02
.632	318.42	.9919	.02
.7301	318.42	.9908	.02
.8577	318.42	.9893	.02
.9658	318.42	.983	.02
0	323.48	0	.02
.1039	323.48	.9748	.02
.1894	323.48	.9837	.02
.2553	323.48	.9884	.02
.338	323.48	.9892	.02
.432	323.48	.9904	.02
.523	323.48	.9908	.02
.625	323.48	.9898	.02
.7199	323.48	.9885	.02
.8472	323.48	.9874	.02
0	328.48	0	.02
.13	328.48	.9783	.02
.205	328.48	.9845	.02
.29	328.48	.9872	.02
.367	328.48	.9883	.02
.445	328.48	.9886	.02
.511	328.48	.9885	.02
.608	328.48	.9874	.02
.6844	328.48	.986	.02
.781	328.48	.9839	.02
0	338.43	0	.02
.096	338.43	.9588	.02
.1799	338.43	.9756	.02
.252	338.43	.9804	.02
.329	338.43	.9829	.02
.401	338.43	.9838	.02
.469	338.43	.984	.02
.533	338.43	.9833	.02
.5966	338.43	.9822	.02
.6648	338.43	.9824	.02
.7424	338.43	.9764	.02
