Measured thermophysical data. Thermostabilities and solubilities of flame retardant bisphenol S-bis (5,5-dimethyl-1,3-dioxaphosphorinanyl-2-oxy phosphate ester) as a function of temperature
Source: Fluid Phase Equilib., 2014, 10.1016/j.fluid.2014.04.006
Compound 1: 5,5-dimethyl-1,3-dioxaphosphorinanyl-2-oxy phosphate ester, C22H28O10P2S
Compound 2: acetonitrile, C2H3N, purity 99%
Compound 3: acetone, C3H6O, purity 99%
Compound 4: methanol, CH4O, purity 99%
Compound 5: tetrahydrofuran, C4H8O, purity 99%
Compound 6: ethyl acetate, C4H8O2, purity 99%
Compound 7: trichloromethane, CHCl3, purity 99%
Compound 8: water, H2O

System: 5,5-dimethyl-1,3-dioxaphosphorinanyl-2-oxy phosphate ester; phases: Crystal, Liquid, Air at 1 atmosphere
Property: Normal melting temperature, K (Crystal); method: DSC/DTA
Normal melting temperature, K	uncertainty
551.79	.26

System: 5,5-dimethyl-1,3-dioxaphosphorinanyl-2-oxy phosphate ester; phases: Crystal, Liquid, Air at 1 atmosphere
Property: Molar enthalpy of transition or fusion, kJ/mol (Crystal); method: DSC
Molar enthalpy of transition or fusion, kJ/mol	uncertainty
41.62	.14567

System: acetonitrile + 5,5-dimethyl-1,3-dioxaphosphorinanyl-2-oxy phosphate ester; phases: Liquid, Crystal
Fixed: Pressure, kPa = 101
Property: Mole fraction of 5,5-dimethyl-1,3-dioxaphosphorinanyl-2-oxy phosphate ester (Liquid); method: Gravimetric
Temperature, K	Mole fraction of 5,5-dimethyl-1,3-dioxaphosphorinanyl-2-oxy phosphate ester	uncertainty
293.15	.000126	.00000252
298.15	.000172	.00000344
303.15	.000236	.00000472
308.15	.000317	.00000634
313.15	.000415	.0000083
318.15	.000532	.00001064
323.15	.00072	.0000144
328.15	.000958	.00001916
333.15	.001187	.00002374

System: acetone + 5,5-dimethyl-1,3-dioxaphosphorinanyl-2-oxy phosphate ester; phases: Liquid, Crystal
Fixed: Pressure, kPa = 101
Property: Mole fraction of 5,5-dimethyl-1,3-dioxaphosphorinanyl-2-oxy phosphate ester (Liquid); method: Gravimetric
Temperature, K	Mole fraction of 5,5-dimethyl-1,3-dioxaphosphorinanyl-2-oxy phosphate ester	uncertainty
293.15	.000315	.0000063
298.15	.000423	.00000846
303.15	.000626	.00001252
308.15	.000836	.00001672
313.15	.001214	.00002428
318.15	.001705	.0000341
323.15	.00226	.0000452

System: methanol + 5,5-dimethyl-1,3-dioxaphosphorinanyl-2-oxy phosphate ester; phases: Liquid, Crystal
Fixed: Pressure, kPa = 101
Property: Mole fraction of 5,5-dimethyl-1,3-dioxaphosphorinanyl-2-oxy phosphate ester (Liquid); method: Gravimetric
Temperature, K	Mole fraction of 5,5-dimethyl-1,3-dioxaphosphorinanyl-2-oxy phosphate ester	uncertainty
293.15	.000066	.00000132
298.15	.000074	.00000148
308.15	.000093	.00000186
318.15	.000124	.00000248

System: tetrahydrofuran + 5,5-dimethyl-1,3-dioxaphosphorinanyl-2-oxy phosphate ester; phases: Liquid, Crystal
Fixed: Pressure, kPa = 101
Property: Mole fraction of 5,5-dimethyl-1,3-dioxaphosphorinanyl-2-oxy phosphate ester (Liquid); method: Gravimetric
Temperature, K	Mole fraction of 5,5-dimethyl-1,3-dioxaphosphorinanyl-2-oxy phosphate ester	uncertainty
293.15	.000176	.00000352
298.15	.000259	.00000518
303.15	.000408	.00000816
308.15	.000626	.00001252
313.15	.000912	.00001824
318.15	.001322	.00002644
323.15	.001939	.00003878

System: ethyl acetate + 5,5-dimethyl-1,3-dioxaphosphorinanyl-2-oxy phosphate ester; phases: Liquid, Crystal
Fixed: Pressure, kPa = 101
Property: Mole fraction of 5,5-dimethyl-1,3-dioxaphosphorinanyl-2-oxy phosphate ester (Liquid); method: Gravimetric
Temperature, K	Mole fraction of 5,5-dimethyl-1,3-dioxaphosphorinanyl-2-oxy phosphate ester	uncertainty
293.15	.000113	.00000226
298.15	.000158	.00000316
303.15	.000217	.00000434
308.15	.000321	.00000642
313.15	.000409	.00000818
318.15	.000585	.0000117
323.15	.000756	.00001512
328.15	.000984	.00001968
333.15	.001416	.00002832

System: trichloromethane + 5,5-dimethyl-1,3-dioxaphosphorinanyl-2-oxy phosphate ester; phases: Liquid, Crystal
Fixed: Pressure, kPa = 101
Property: Mole fraction of 5,5-dimethyl-1,3-dioxaphosphorinanyl-2-oxy phosphate ester (Liquid); method: Gravimetric
Temperature, K	Mole fraction of 5,5-dimethyl-1,3-dioxaphosphorinanyl-2-oxy phosphate ester	uncertainty
293.15	.001583	.00003166
298.15	.001676	.00003352
308.15	.001758	.00003516
318.15	.001865	.0000373

System: methanol + trichloromethane + 5,5-dimethyl-1,3-dioxaphosphorinanyl-2-oxy phosphate ester; phases: Liquid, Crystal
Fixed: Pressure, kPa = 101
Property: Mole fraction of 5,5-dimethyl-1,3-dioxaphosphorinanyl-2-oxy phosphate ester (Liquid); method: Gravimetric
Solvent: Mole fraction of methanol	Temperature, K	Mole fraction of 5,5-dimethyl-1,3-dioxaphosphorinanyl-2-oxy phosphate ester	uncertainty
0	303.15	.001711	.00003422
0	313.15	.001808	.00003616
0	323.15	.00191	.0000382
.332	303.15	.002006	.00004012
.332	313.15	.002977	.00005954
.332	323.15	.00431	.0000862
.599	303.15	.001922	.00003844
.599	313.15	.002633	.00005266
.599	323.15	.003793	.00007586
.726	303.15	.00146	.0000292
.726	313.15	.002037	.00004074
.726	323.15	.002783	.00005566
.888	303.15	.000689	.00001378
.888	313.15	.000952	.00001904
.888	323.15	.001289	.00002578
1	303.15	.000087	.00000174
1	313.15	.000103	.00000206
1	323.15	.000131	.00000262
