Measured thermophysical data. Vapor-liquid equilibria of binary systems composed of polyoxyethylene 4-octylphenyl ether and  alcohols: Experimental measurements and correlation
Source: Fluid Phase Equilib., 2013, 10.1016/j.fluid.2013.09.029
Compound 1: deca(oxyethylene) 4-octylphenyl ether, C34H62O11, purity 99%
Compound 2: 2-butanol, C4H10O, purity 99.8%
Compound 3: tert-butanol, C4H10O, purity 99.5%
Compound 4: 1-pentanol, C5H12O, purity 99.8%

System: 2-butanol; phases: Liquid
Fixed: Pressure, kPa = 101.325
Property: Mass density, kg/m3 (Liquid); method: Vibrating tube method
Temperature, K	Mass density, kg/m3	uncertainty
298.15	802.47	.05

System: 2-butanol; phases: Liquid, Gas
Property: Vapor or sublimation pressure, kPa (Liquid); method: Closed cell (Static) method
Temperature, K	Vapor or sublimation pressure, kPa	uncertainty
332.9	18	.018
342.9	29.2	.0292
352.5	45	.045
361.3	65	.065
371.1	96	.096
381.1	137.6	.1376
391.9	197.5	.1975
401.4	266.1	.2661
412	361.8	.3618
421.6	471.4	.4714

System: tert-butanol; phases: Liquid
Fixed: Pressure, kPa = 101.325
Property: Mass density, kg/m3 (Liquid); method: Vibrating tube method
Temperature, K	Mass density, kg/m3	uncertainty
298.15	781.04	.05

System: tert-butanol; phases: Liquid, Gas
Property: Vapor or sublimation pressure, kPa (Liquid); method: Closed cell (Static) method
Temperature, K	Vapor or sublimation pressure, kPa	uncertainty
330.9	34.9	.0349
331.1	35.3	.0353
340.6	54	.054
350.6	82.6	.0826
360.1	121.2	.1212
369.5	171.4	.1714
378.5	232.1	.2321
387.7	310.6	.3106
396.7	406.4	.4064

System: 1-pentanol; phases: Liquid
Fixed: Pressure, kPa = 101.325
Property: Mass density, kg/m3 (Liquid); method: Vibrating tube method
Temperature, K	Mass density, kg/m3	uncertainty
298.15	811.04	.05

System: 1-pentanol; phases: Liquid, Gas
Property: Vapor or sublimation pressure, kPa (Liquid); method: Closed cell (Static) method
Temperature, K	Vapor or sublimation pressure, kPa	uncertainty
333.1	3.1	.0031
344.8	6	.006
354.4	10	.01
362.4	14.8	.0148
371.2	21.9	.0219
381.6	34.1	.0341
391.5	50.2	.0502
401.7	73.1	.0731
411.4	102.1	.1021
422.4	145.2	.1452

System: 2-butanol + deca(oxyethylene) 4-octylphenyl ether; phases: Liquid, Gas
Property: Vapor or sublimation pressure, kPa (Liquid); method: Closed cell (Static) method
Mole fraction of deca(oxyethylene) 4-octylphenyl ether	Temperature, K	Vapor or sublimation pressure, kPa	uncertainty
.1	333.3	16.5	.0165
.1	342.8	26	.026
.1	353.2	42.3	.0423
.1	363.6	62.9	.0629
.1	374.1	92.3	.0923
.1	374.4	89.2	.0892
.1	382.3	121.3	.1213
.1	385.3	133.8	.1338
.1	394	176.8	.1768
.1	403.1	232.7	.2327
.1	413.7	309.5	.3095
.1	422.4	388.9	.3889
.2	333.6	16.4	.0164
.2	343.1	25.3	.0253
.2	354.2	37.9	.0379
.2	364.5	53.9	.0539
.2	372.2	68.7	.0687
.2	381.7	89.2	.0892
.2	382.5	90.7	.0907
.2	395.6	127.2	.1272
.2	403.8	155.7	.1557
.2	404.6	157.6	.1576
.2	413.7	196.8	.1968
.2	422.8	238.7	.2387
.307	331	12.5	.0125
.307	341.4	19.7	.0197
.307	350.6	27.1	.0271
.307	360.8	37.9	.0379
.307	369.7	49.9	.0499
.307	378.7	62.5	.0625
.307	388.7	77.4	.0774
.307	397.4	92.1	.0921
.307	406	106.1	.1061
.307	415.1	125.2	.1252
.4	335.5	14.7	.0147
.4	343	19.5	.0195
.4	356.4	29.1	.0291
.4	363.1	35.2	.0352
.4	364.4	36.1	.0361
.4	373.5	46.1	.0461
.4	381.7	55	.055
.4	393.2	70.3	.0703
.4	394	72	.072
.4	404.1	83	.083
.4	404.7	83	.083
.4	405.1	84	.084
.4	413.7	96.8	.0968
.4	424.5	109.3	.1093

System: tert-butanol + deca(oxyethylene) 4-octylphenyl ether; phases: Liquid, Gas
Property: Vapor or sublimation pressure, kPa (Liquid); method: Closed cell (Static) method
Mole fraction of deca(oxyethylene) 4-octylphenyl ether	Temperature, K	Vapor or sublimation pressure, kPa	uncertainty
.1	322.6	21.7	.0217
.1	333.4	34.1	.0341
.1	343.3	52.3	.0523
.1	352.9	76.1	.0761
.1	362.7	107.9	.1079
.1	372.9	151.9	.1519
.1	382.6	205.1	.2051
.1	390.4	258.9	.2589
.1	401.3	341.3	.3413
.2	322.8	19.1	.0191
.2	331.6	28.5	.0285
.2	341.4	42.7	.0427
.2	350	59.8	.0598
.2	361.2	86.8	.0868
.2	370.3	113	.113
.2	379.4	147.4	.1474
.2	389.1	190.3	.1903
.2	398.9	241.4	.2414
.3	322.9	17.4	.0174
.3	332.2	24.6	.0246
.3	342.4	36.1	.0361
.3	351.1	48.8	.0488
.3	362.3	65.7	.0657
.3	370.8	82.1	.0821
.3	381.4	103.1	.1031
.3	390.8	128.3	.1283
.3	400.3	162.9	.1629
.432	321	14.1	.0141
.432	331.2	20.8	.0208
.432	340.9	27.5	.0275
.432	351.2	39.1	.0391
.432	360.1	49.1	.0491
.432	370.8	64	.064
.432	379.3	74.4	.0744
.432	389.8	89.6	.0896
.432	399.2	105.3	.1053

System: 1-pentanol + deca(oxyethylene) 4-octylphenyl ether; phases: Liquid, Gas
Property: Vapor or sublimation pressure, kPa (Liquid); method: Closed cell (Static) method
Mole fraction of deca(oxyethylene) 4-octylphenyl ether	Temperature, K	Vapor or sublimation pressure, kPa	uncertainty
.1	332.4	2.7	.0027
.1	343.3	4.7	.0047
.1	352.7	7.7	.0077
.1	363.5	14.1	.0141
.1	373.6	21.4	.0214
.1	381.5	28.8	.0288
.1	393.1	43.1	.0431
.1	402.4	62.6	.0626
.1	412	86	.086
.1	422	118.1	.1181
.2	331.9	2.4	.0024
.2	339.8	3.9	.0039
.2	350	6.5	.0065
.2	360.6	10.7	.0107
.2	370.2	16	.016
.2	379.7	23.4	.0234
.2	389.1	33.5	.0335
.2	398.8	44.2	.0442
.2	408.9	59.8	.0598
.2	419.6	80.5	.0805
.3	332.5	2	.002
.3	342	3.3	.0033
.3	350.5	5.2	.0052
.3	360.8	8.9	.0089
.3	372.4	13.7	.0137
.3	381.4	18.5	.0185
.3	389.8	26.8	.0268
.3	400.3	34.9	.0349
.3	410.8	46.5	.0465
.3	420.6	59.2	.0592
.4	334.8	2.3	.0023
.4	344.7	3.9	.0039
.4	354.1	6.1	.0061
.4	363.2	8.4	.0084
.4	371.2	11.5	.0115
.4	382.1	17.1	.0171
.4	391.6	22.6	.0226
.4	400.7	26.6	.0266
.4	411.5	32.2	.0322
.4	420.2	38	.038
