Measured thermophysical data. Capacity of ionic liquids [EMim][NTf2] and [EMpy][NTf2] for extraction of toluene from mixtures with alkanes: Comparative study of the effect of the cation
Source: Fluid Phase Equilib., 2012, 10.1016/j.fluid.2011.11.016
Compound 1: heptane, C7H16, purity 99.5%
Compound 2: cyclohexane, C6H12, purity 99.9%
Compound 3: toluene, C7H8, purity 99.9%
Compound 4: 1-ethyl-3-methylimidazolium chloride, C6H11ClN2, purity 99%
Compound 5: 1-ethyl-3-methylpyridinium ethylsulfate, C10H17NO4S, purity 99%

System: cyclohexane + heptane; phases: Liquid
Fixed: Temperature, K = 298.15
Fixed: Pressure, kPa = 101.3
Property: Mass density, kg/m3 (Liquid); method: Vibrating tube method
Mole fraction of heptane	Mass density, kg/m3	uncertainty
1	679.57	.03
.9539	682.6	.03
.9061	685.62	.03
.8061	692.71	.03
.7062	700.61	.03
.666	703.79	.03
.5039	717.21	.03
.3926	726.61	.03
.3118	735.69	.03
.2021	748.16	.03
.0991	760.53	.03
.0503	766.95	.03
0	773.88	.03

System: toluene + heptane + 1-ethyl-3-methylimidazolium chloride; phases: Liquid mixture 1, Liquid mixture 2
Property: Mole fraction of heptane (Liquid mixture 1); method: Density calibration data
Property: Mole fraction of toluene (Liquid mixture 2); method: Density calibration data
Property: Mole fraction of heptane (Liquid mixture 2); method: Density calibration data
Temperature, K	Pressure, kPa	Mole fraction of toluene	Mole fraction of heptane	uncertainty	Mole fraction of toluene	uncertainty	Mole fraction of heptane	uncertainty
298.15	101.3	0	1	.007	0	.007	.038	.007
298.15	101.3	1	0	.007	.649	.007	0	.007
298.15	101.3	.104	.896	.007	.084	.007	.03	.007
298.15	101.3	.184	.816	.007	.145	.007	.032	.007
298.15	101.3	.25	.75	.007	.196	.007	.037	.007
298.15	101.3	.34	.66	.007	.249	.007	.041	.007
298.15	101.3	.477	.523	.007	.315	.007	.044	.007
298.15	101.3	.603	.397	.007	.369	.007	.044	.007
298.15	101.3	.712	.288	.007	.428	.007	.04	.007
298.15	101.3	.848	.152	.007	.506	.007	.03	.007

System: toluene + heptane + 1-ethyl-3-methylpyridinium ethylsulfate; phases: Liquid mixture 2, Liquid mixture 1
Property: Mole fraction of heptane (Liquid mixture 2); method: Density calibration data
Property: Mole fraction of heptane (Liquid mixture 1); method: Density calibration data
Property: Mole fraction of toluene (Liquid mixture 1); method: Density calibration data
Temperature, K	Pressure, kPa	Mole fraction of toluene	Mole fraction of heptane	uncertainty	Mole fraction of heptane	uncertainty	Mole fraction of toluene	uncertainty
298.15	101.3	0	.046	.007	1	.007	0	.007
298.15	101.3	.708	0	.007	0	.007	1	.007
298.15	101.3	.074	.065	.007	.92	.007	.08	.007
298.15	101.3	.138	.072	.007	.841	.007	.159	.007
298.15	101.3	.193	.075	.007	.771	.007	.229	.007
298.15	101.3	.253	.077	.007	.69	.007	.31	.007
298.15	101.3	.324	.074	.007	.602	.007	.398	.007
298.15	101.3	.397	.067	.007	.505	.007	.495	.007
298.15	101.3	.467	.056	.007	.396	.007	.604	.007
298.15	101.3	.557	.039	.007	.26	.007	.74	.007

System: toluene + cyclohexane + 1-ethyl-3-methylimidazolium chloride; phases: Liquid mixture 2, Liquid mixture 1
Property: Mole fraction of cyclohexane (Liquid mixture 2); method: Density calibration data
Property: Mole fraction of cyclohexane (Liquid mixture 1); method: Density calibration data
Property: Mole fraction of toluene (Liquid mixture 1); method: Density calibration data
Temperature, K	Pressure, kPa	Mole fraction of toluene	Mole fraction of cyclohexane	uncertainty	Mole fraction of cyclohexane	uncertainty	Mole fraction of toluene	uncertainty
298.15	101.3	0	.126	.007	1	.007	0	.007
298.15	101.3	.649	0	.007	0	.007	1	.007
298.15	101.3	.085	.114	.007	.912	.007	.089	.007
298.15	101.3	.149	.101	.007	.825	.007	.175	.007
298.15	101.3	.208	.091	.007	.741	.007	.259	.007
298.15	101.3	.273	.08	.007	.632	.007	.368	.007
298.15	101.3	.305	.074	.007	.571	.007	.429	.007
298.15	101.3	.377	.061	.007	.451	.007	.549	.007
298.15	101.3	.431	.051	.007	.348	.007	.652	.007
298.15	101.3	.516	.035	.007	.21	.007	.79	.007

System: toluene + cyclohexane + 1-ethyl-3-methylpyridinium ethylsulfate; phases: Liquid mixture 2, Liquid mixture 1
Property: Mole fraction of cyclohexane (Liquid mixture 2); method: Density calibration data
Property: Mole fraction of cyclohexane (Liquid mixture 1); method: Density calibration data
Property: Mole fraction of toluene (Liquid mixture 1); method: Density calibration data
Temperature, K	Pressure, kPa	Mole fraction of toluene	Mole fraction of cyclohexane	uncertainty	Mole fraction of cyclohexane	uncertainty	Mole fraction of toluene	uncertainty
298.15	101.3	0	.106	.007	1	.007	0	.007
298.15	101.3	.708	0	.007	0	.007	1	.007
298.15	101.3	.125	.094	.007	.899	.007	.101	.007
298.15	101.3	.202	.095	.007	.825	.007	.175	.007
298.15	101.3	.249	.096	.007	.766	.007	.234	.007
298.15	101.3	.314	.097	.007	.678	.007	.322	.007
298.15	101.3	.372	.094	.007	.589	.007	.411	.007
298.15	101.3	.43	.09	.007	.494	.007	.507	.007
298.15	101.3	.494	.074	.007	.386	.007	.614	.007
298.15	101.3	.571	.054	.007	.244	.007	.756	.007

System: cyclohexane + heptane + 1-ethyl-3-methylimidazolium chloride; phases: Liquid mixture 2, Liquid mixture 1
Property: Mole fraction of heptane (Liquid mixture 2); method: Density calibration data
Property: Mole fraction of heptane (Liquid mixture 1); method: Density calibration data
Property: Mole fraction of cyclohexane (Liquid mixture 1); method: Density calibration data
Temperature, K	Pressure, kPa	Mole fraction of cyclohexane	Mole fraction of heptane	uncertainty	Mole fraction of heptane	uncertainty	Mole fraction of cyclohexane	uncertainty
298.15	101.3	0	.038	.007	1	.007	0	.007
298.15	101.3	.126	0	.007	0	.007	1	.007
298.15	101.3	.019	.025	.007	.87	.007	.13	.007
298.15	101.3	.028	.021	.007	.778	.007	.222	.007
298.15	101.3	.037	.017	.007	.65	.007	.35	.007
298.15	101.3	.042	.016	.007	.598	.007	.402	.007
298.15	101.3	.049	.014	.007	.487	.007	.513	.007
298.15	101.3	.051	.013	.007	.386	.007	.614	.007
298.15	101.3	.056	.013	.007	.287	.007	.713	.007
298.15	101.3	.063	.012	.007	.18	.007	.82	.007

System: cyclohexane + heptane + 1-ethyl-3-methylpyridinium ethylsulfate; phases: Liquid mixture 2, Liquid mixture 1
Property: Mole fraction of heptane (Liquid mixture 2); method: Density calibration data
Property: Mole fraction of heptane (Liquid mixture 1); method: Density calibration data
Property: Mole fraction of cyclohexane (Liquid mixture 1); method: Density calibration data
Temperature, K	Pressure, kPa	Mole fraction of cyclohexane	Mole fraction of heptane	uncertainty	Mole fraction of heptane	uncertainty	Mole fraction of cyclohexane	uncertainty
298.15	101.3	0	.046	.007	1	.007	0	.007
298.15	101.3	.106	0	.007	0	.007	1	.007
298.15	101.3	.011	.04	.007	.869	.007	.131	.007
298.15	101.3	.02	.036	.007	.774	.007	.226	.007
298.15	101.3	.028	.033	.007	.701	.007	.299	.007
298.15	101.3	.037	.028	.007	.589	.007	.411	.007
298.15	101.3	.043	.025	.007	.485	.007	.515	.007
298.15	101.3	.053	.021	.007	.38	.007	.62	.007
298.15	101.3	.062	.017	.007	.282	.007	.718	.007
298.15	101.3	.072	.013	.007	.203	.007	.797	.007
