Measured thermophysical data. The physicochemical properties of liquid Ga-Zn alloys
Source: Fluid Phase Equilib., 2017, 10.1016/j.fluid.2017.03.025
Compound 1: gallium, Ga, purity 99.999%
Compound 2: zinc, Zn, purity 99.9999%

System: gallium; phases: Liquid
Property: Mass density, kg/m3 (Liquid); method: discharge crucible method
Temperature, K	Pressure, kPa	Mass density, kg/m3	uncertainty
723	101	5819	

System: gallium; phases: Liquid, Gas
Property: Surface tension liquid-gas, N/m (Liquid); method: discharge crucible method
Temperature, K	Surface tension liquid-gas, N/m	uncertainty
723	.6946	

System: gallium; phases: Liquid
Property: Viscosity, Pa*s (Liquid); method: discharge crucible method
Temperature, K	Pressure, kPa	Viscosity, Pa*s	uncertainty
723	101	.812	

System: zinc; phases: Liquid
Property: Mass density, kg/m3 (Liquid); method: discharge crucible method
Temperature, K	Pressure, kPa	Mass density, kg/m3	uncertainty
723	101	6831	

System: zinc; phases: Liquid, Gas
Property: Surface tension liquid-gas, N/m (Liquid); method: discharge crucible method
Temperature, K	Surface tension liquid-gas, N/m	uncertainty
723	.8121	

System: zinc; phases: Liquid
Property: Viscosity, Pa*s (Liquid); method: discharge crucible method
Temperature, K	Pressure, kPa	Viscosity, Pa*s	uncertainty
723	101	3.721	

System: gallium + zinc; phases: Liquid
Fixed: Pressure, kPa = 101
Property: Mass density, kg/m3 (Liquid); method: discharge crucible method
Temperature, K	Mass fraction of zinc	Mass density, kg/m3	uncertainty
723	0	5819	
723	.036	5836	
723	.25	6024	
723	.5	6276	
723	.75	6536	
723	.9	6700	
723	1	6831	
323	.036	6081	
373	.036	6049	
423	.036	6018	
473	.036	5989	
523	.036	5956	
573	.036	5929	
623	.036	5896	
673	.036	5866	
723	.036	5836	
773	.036	5806	
423	.25	6205	
473	.25	6175	
523	.25	6146	
573	.25	6115	
623	.25	6079	
673	.25	6052	
723	.25	6025	
773	.25	5998	
573	.5	6355	
623	.5	6323	
673	.5	6302	
723	.5	6277	
773	.5	6249	
623	.75	6584	
673	.75	6557	
723	.75	6537	
773	.75	6512	
673	.9	6721	
723	.9	6699	
773	.9	6679	
823	.9	6657	

System: gallium + zinc; phases: Liquid, Gas
Property: Surface tension liquid-gas, N/m (Liquid); method: discharge crucible method
Temperature, K	Mass fraction of zinc	Surface tension liquid-gas, N/m	uncertainty
723	0	.6946	
723	.036	.6938	
723	.25	.7052	
723	.5	.7253	
723	.75	.754	
723	.9	.7804	
723	1	.8121	
323	.036	.7229	
373	.036	.7192	
423	.036	.7156	
473	.036	.712	
523	.036	.7084	
573	.036	.7049	
623	.036	.7012	
673	.036	.6977	
723	.036	.6943	
773	.036	.6908	
423	.25	.733	
473	.25	.7289	
523	.25	.7235	
573	.25	.7189	
623	.25	.7146	
673	.25	.7097	
723	.25	.7055	
773	.25	.7004	
573	.5	.7485	
623	.5	.7398	
673	.5	.7333	
723	.5	.7253	
773	.5	.7177	
623	.75	.7735	
673	.75	.7641	
723	.75	.7534	
773	.75	.7446	
673	.9	.7923	
723	.9	.7805	
773	.9	.7687	
823	.9	.7555	

System: gallium + zinc; phases: Liquid
Fixed: Pressure, kPa = 101
Property: Viscosity, Pa*s (Liquid); method: discharge crucible method
Temperature, K	Mass fraction of zinc	Viscosity, Pa*s	uncertainty
723	0	.812	
723	.036	.709	
723	.25	1.148	
723	.5	1.871	
723	.75	2.625	
723	.9	3.241	
723	1	3.721	
323	.036	1.576	
373	.036	1.336	
423	.036	1.139	
473	.036	1.018	
523	.036	.924	
573	.036	.845	
623	.036	.779	
673	.036	.736	
723	.036	.699	
773	.036	.662	
423	.25	2.596	
473	.25	2.037	
523	.25	1.733	
573	.25	1.529	
623	.25	1.375	
673	.25	1.261	
723	.25	1.159	
773	.25	1.098	
573	.5	2.861	
623	.5	2.394	
673	.5	2.112	
723	.5	1.875	
773	.5	1.693	
623	.75	3.588	
673	.75	3.019	
723	.75	2.625	
773	.75	2.323	
673	.9	3.809	
723	.9	3.225	
773	.9	2.813	
823	.9	2.517	
