Measured thermophysical data. Thermodynamic studies of fluphenazine decanoate solubility in propylene  glycol + water mixtures and correlation with the Jouyban Acree model
Source: Fluid Phase Equilib., 2011, 10.1016/j.fluid.2011.06.008
Compound 1: fluphenazine decanoate, C32H44F3N3O2S, purity 99.4%
Compound 2: 1,2-propanediol, C3H8O2, purity 99.5%
Compound 3: water, H2O

System: 1,2-propanediol + fluphenazine decanoate + water; phases: Liquid, Crystal
Fixed: Pressure, kPa = 101
Property: Mole fraction of fluphenazine decanoate (Liquid); method: UV-VIS Spectrophotometry
Solvent: Mass fraction of 1,2-propanediol	Temperature, K	Mole fraction of fluphenazine decanoate	uncertainty
1	293.2	.0001	.0000025
.9	293.2	.0000676	.00000169
.8	293.2	.0000387	.0000009675
.7	293.2	.0000215	.0000005375
.6	293.2	.000023	.000000575
.5	293.2	.0000095	.0000002375
.4	293.2	.0000047	.0000001175
.3	293.2	.0000026	.000000065
.2	293.2	.0000013	.0000000325
.1	293.2	.0000006	.000000015
0	293.2	.0000002	.000000005
1	298.2	.000188	.0000047
.9	298.2	.0000948	.00000237
.8	298.2	.000051	.000001275
.7	298.2	.0000281	.0000007025
.6	298.2	.0000157	.0000003925
.5	298.2	.0000114	.000000285
.4	298.2	.0000069	.0000001725
.3	298.2	.0000033	.0000000825
.2	298.2	.0000015	.0000000375
.1	298.2	.0000008	.00000002
0	298.2	.0000003	.0000000075
1	303.2	.00031	.00000775
.9	303.2	.000119	.000002975
.8	303.2	.0000643	.0000016075
.7	303.2	.0000381	.0000009525
.6	303.2	.0000209	.0000005225
.5	303.2	.000014	.00000035
.4	303.2	.0000083	.0000002075
.3	303.2	.000004	.0000001
.2	303.2	.0000022	.000000055
.1	303.2	.000001	.000000025
0	303.2	.0000004	.00000001
1	308.2	.000512	.0000128
.9	308.2	.000187	.000004675
.8	308.2	.0000964	.00000241
.7	308.2	.0000486	.000001215
.6	308.2	.0000253	.0000006325
.5	308.2	.0000181	.0000004525
.4	308.2	.0000093	.0000002325
.3	308.2	.0000056	.00000014
.2	308.2	.0000028	.00000007
.1	308.2	.0000013	.0000000325
0	308.2	.0000005	.0000000125
1	313.2	.000726	.00001815
.9	313.2	.000285	.000007125
.8	313.2	.000133	.000003325
.7	313.2	.000074	.00000185
.6	313.2	.000032	.0000008
.5	313.2	.0000216	.00000054
.4	313.2	.0000125	.0000003125
.3	313.2	.0000065	.0000001625
.2	313.2	.0000032	.00000008
.1	313.2	.0000017	.0000000425
0	313.2	.0000006	.000000015

System: 1,2-propanediol + fluphenazine decanoate + water; phases: Liquid, Crystal
Fixed: Pressure, kPa = 101
Property: Mass density, kg/m3 (Liquid); method: Pycnometric method
Solvent: Mass fraction of 1,2-propanediol	Temperature, K	Mass density, kg/m3	uncertainty
1	293.2	1052	1
.9	293.2	1046	1
.8	293.2	1044	1
.7	293.2	1040	1
.6	293.2	1038	1
.5	293.2	1032	1
.4	293.2	1028	1
.3	293.2	1022	1
.2	293.2	1016	1
.1	293.2	1012	1
0	293.2	1006	1
1	298.2	1046	1
.9	298.2	1040	1
.8	298.2	1034	1
.7	298.2	1030	1
.6	298.2	1026	1
.5	298.2	1022	1
.4	298.2	1018	1
.3	298.2	1012	1
.2	298.2	1010	1
.1	298.2	1006	1
0	298.2	1000	1
1	303.2	1042	1
.9	303.2	1036	1
.8	303.2	1030	1
.7	303.2	1026	1
.6	303.2	1020	1
.5	303.2	1016	1
.4	303.2	1012	1
.3	303.2	1008	1
.2	303.2	1004	1
.1	303.2	1002	1
0	303.2	996	1
1	308.2	1038	1
.9	308.2	1036	1
.8	308.2	1032	1
.7	308.2	1028	1
.6	308.2	1022	1
.5	308.2	1016	1
.4	308.2	1012	1
.3	308.2	1006	1
.2	308.2	1002	1
.1	308.2	996	1
0	308.2	990	1
1	313.2	1032	1
.9	313.2	1026	1
.8	313.2	1020	1
.7	313.2	1016	1
.6	313.2	1010	1
.5	313.2	1006	1
.4	313.2	1002	1
.3	313.2	998	1
.2	313.2	994	1
.1	313.2	988	1
0	313.2	984	1
