Measured thermophysical data. Limiting activity coefficient measurements in binary mixtures of dichloromethane and 1-alkanols (C1 - C4)
Source: Fluid Phase Equilib., 2016, 10.1016/j.fluid.2015.11.037
Compound 1: methanol, CH4O, purity 99.8%
Compound 2: ethanol, C2H6O, purity 99.8%
Compound 3: 1-propanol, C3H8O, purity 99.5%
Compound 4: 1-butanol, C4H10O, purity 99.0%
Compound 5: dichloromethane, CH2Cl2, purity 99.9%

System: dichloromethane; phases: Liquid, Gas
Property: Vapor or sublimation pressure, kPa (Liquid); method: Ebulliometric method (Recirculating still)
Temperature, K	Vapor or sublimation pressure, kPa	uncertainty
285.887	34.664	.007
287.578	37.33	.007
289.939	41.33	.007
292.118	45.33	.007
294.148	49.329	.007
296.048	53.329	.007
298.414	58.662	.007
300.612	63.995	.007
302.668	69.328	.007
304.605	74.661	.007
306.434	79.993	.007
308.167	85.326	.007
309.816	90.659	.007
311.391	95.992	.007

System: methanol + dichloromethane; phases: Liquid
Fixed: Pressure, kPa = 100
Property: Activity coefficient of dichloromethane (Liquid); method: Rayleigh distillation
Mole fraction of dichloromethane	Temperature, K	Activity coefficient of dichloromethane	uncertainty
0	293.15	2.84	.06
0	303.15	2.87	.03
0	313.15	2.87	.03
0	323.15	2.83	.03
0	333.15	2.81	.03

System: methanol + dichloromethane; phases: Liquid
Property: Activity coefficient of methanol (Liquid); method: comparative ebulliometry
Mole fraction of methanol	Pressure, kPa	Temperature, K	Activity coefficient of methanol	uncertainty
0	46.848	293.15	13.4	.4
0	69.604	303.15	11.6	.3
0	93.616	311.15	9.86	.25

System: ethanol + dichloromethane; phases: Liquid
Fixed: Pressure, kPa = 100
Property: Activity coefficient of dichloromethane (Liquid); method: Rayleigh distillation
Mole fraction of dichloromethane	Temperature, K	Activity coefficient of dichloromethane	uncertainty
0	303.15	2.29	.03
0	313.15	2.3	.03
0	323.15	2.29	.03
0	333.15	2.27	.03
0	343.15	2.18	.1

System: ethanol + dichloromethane; phases: Liquid
Property: Activity coefficient of ethanol (Liquid); method: comparative ebulliometry
Mole fraction of ethanol	Pressure, kPa	Temperature, K	Activity coefficient of ethanol	uncertainty
0	46.848	293.15	9.56	.1
0	69.604	303.15	7.98	.1
0	93.616	311.15	7.09	.11

System: 1-propanol + dichloromethane; phases: Liquid
Fixed: Pressure, kPa = 100
Property: Activity coefficient of dichloromethane (Liquid); method: Inert gas stripping
Mole fraction of dichloromethane	Temperature, K	Activity coefficient of dichloromethane	uncertainty
0	283.15	1.99	.01
0	293.15	2	.01
0	303.15	2.02	.01
0	313.15	2.05	.01
0	323.15	2.04	.01
0	333.15	2.02	.01

System: 1-propanol + dichloromethane; phases: Liquid
Fixed: Pressure, kPa = 100
Property: Activity coefficient of dichloromethane (Liquid); method: Rayleigh distillation
Mole fraction of dichloromethane	Temperature, K	Activity coefficient of dichloromethane	uncertainty
0	333.15	2.06	.03

System: 1-propanol + dichloromethane; phases: Liquid
Property: Activity coefficient of 1-propanol (Liquid); method: comparative ebulliometry
Mole fraction of 1-propanol	Pressure, kPa	Temperature, K	Activity coefficient of 1-propanol	uncertainty
0	46.848	293.15	8.38	.16
0	69.604	303.15	6.99	.16
0	93.616	311.15	5.98	.13

System: 1-butanol + dichloromethane; phases: Liquid
Fixed: Pressure, kPa = 100
Property: Activity coefficient of dichloromethane (Liquid); method: inert gas stripping
Mole fraction of dichloromethane	Temperature, K	Activity coefficient of dichloromethane	uncertainty
0	283.15	1.85	.01
0	293.15	1.86	.01
0	303.15	1.86	.01
0	313.15	1.86	.01
0	323.15	1.83	.01
0	333.15	1.76	.02

System: 1-butanol + dichloromethane; phases: Liquid
Property: Activity coefficient of 1-butanol (Liquid); method: differential distillation
Mole fraction of 1-butanol	Pressure, kPa	Temperature, K	Activity coefficient of 1-butanol	uncertainty
0	100	293.15	7.68	.15
0	100	303.15	6.18	.11
0	100	311.15	5.43	.2
