Measured thermophysical data. High-pressure phase behavior of binary mixtures containing ionic liquid  [HMP][Tf2N], [OMP][Tf2N] and carbon dioxide
Source: Fluid Phase Equilib., 2011, 10.1016/j.fluid.2011.06.023
Compound 1: 1-hexyl-1-methylpyrrolidinium bis(trifluoromethanesulfonyl)imide, C13H24F6N2O4S2, purity 99%
Compound 2: 1-methyl-1-octylpyrrolidinium bis(trifluoromethylsulfonyl)amide, C15H28F6N2O4S2, purity 99%
Compound 3: carbon dioxide, CO2, purity 99.995%

System: carbon dioxide + 1-hexyl-1-methylpyrrolidinium bis(trifluoromethanesulfonyl)imide; phases: Liquid, Gas
Property: Vapor or sublimation pressure, kPa (Liquid); method: variable volume cell
Mole fraction of carbon dioxide	Temperature, K	Vapor or sublimation pressure, kPa	uncertainty
.2778	303.15	1060	50
.2778	313.15	1290	50
.2778	323.15	1550	50
.2778	333.15	1730	50
.2778	343.15	1920	50
.2778	353.15	2220	50
.2778	363.15	2550	50
.2778	373.15	2870	50
.3827	303.15	1680	50
.3827	313.15	2070	50
.3827	323.15	2490	50
.3827	333.15	2860	50
.3827	343.15	3290	50
.3827	353.15	3720	50
.3827	363.15	4180	50
.3827	373.15	4620	50
.4416	303.15	2120	50
.4416	313.15	2590	50
.4416	323.15	3070	50
.4416	333.15	3580	50
.4416	343.15	4130	50
.4416	353.15	4670	50
.4416	363.15	5200	50
.4416	373.15	5830	50
.5699	303.15	3260	50
.5699	313.15	3920	50
.5699	323.15	4680	50
.5699	333.15	5590	50
.5699	343.15	6530	50
.5699	353.15	7520	50
.5699	363.15	8530	50
.5699	373.15	9620	50
.6138	303.15	4040	50
.6138	313.15	4880	50
.6138	323.15	5870	50
.6138	333.15	6960	50
.6138	343.15	8280	50
.6138	353.15	9550	50
.6138	363.15	10950	50
.6138	373.15	12280	50
.6797	303.15	4900	50
.6797	313.15	6100	50
.6797	323.15	7600	50
.6797	333.15	9260	50
.6797	343.15	11170	50
.6797	353.15	13340	50
.6797	363.15	15030	50
.6797	373.15	17060	50
.7478	303.15	6290	50
.7478	313.15	9120	50
.7478	323.15	12500	50
.7478	333.15	16000	50
.7478	343.15	19100	50
.7478	353.15	22670	50
.7478	363.15	25570	50
.7478	373.15	28000	50
.8105	303.15	21720	50
.8105	313.15	26000	50
.8105	323.15	30530	50
.8105	333.15	34730	50
.8105	343.15	38020	50
.8105	353.15	41560	50
.8105	363.15	44630	50
.8105	373.15	47550	50

System: carbon dioxide + 1-methyl-1-octylpyrrolidinium bis(trifluoromethylsulfonyl)amide; phases: Liquid, Gas
Property: Vapor or sublimation pressure, kPa (Liquid); method: variable volume cell
Mole fraction of carbon dioxide	Temperature, K	Vapor or sublimation pressure, kPa	uncertainty
.2409	303.15	510	50
.2409	313.15	620	50
.2409	323.15	740	50
.2409	333.15	860	50
.2409	343.15	990	50
.2409	353.15	1170	50
.2409	363.15	1300	50
.2409	373.15	1510	50
.3418	303.15	1020	50
.3418	313.15	1310	50
.3418	323.15	1610	50
.3418	333.15	1870	50
.3418	343.15	2180	50
.3418	353.15	2440	50
.3418	363.15	2690	50
.3418	373.15	3020	50
.4424	303.15	1860	50
.4424	313.15	2220	50
.4424	323.15	2620	50
.4424	333.15	3100	50
.4424	343.15	3520	50
.4424	353.15	4030	50
.4424	363.15	4500	50
.4424	373.15	5030	50
.523	303.15	2480	50
.523	313.15	3050	50
.523	323.15	3620	50
.523	333.15	4220	50
.523	343.15	4830	50
.523	353.15	5480	50
.523	363.15	6170	50
.523	373.15	6780	50
.6193	303.15	3510	50
.6193	313.15	4270	50
.6193	323.15	5060	50
.6193	333.15	6000	50
.6193	343.15	7000	50
.6193	353.15	8030	50
.6193	363.15	8990	50
.6193	373.15	10200	50
.6779	303.15	4100	50
.6779	313.15	5170	50
.6779	323.15	6120	50
.6779	333.15	7500	50
.6779	343.15	8750	50
.6779	353.15	10150	50
.6779	363.15	11600	50
.6779	373.15	12990	50
.7309	303.15	5900	50
.7309	313.15	7300	50
.7309	323.15	9180	50
.7309	333.15	11440	50
.7309	343.15	13510	50
.7309	353.15	16080	50
.7309	363.15	18000	50
.7309	373.15	20100	50
.7758	303.15	7350	50
.7758	313.15	10200	50
.7758	323.15	13390	50
.7758	333.15	16450	50
.7758	343.15	19350	50
.7758	353.15	22210	50
.7758	363.15	24300	50
.7758	373.15	26600	50
.8176	303.15	16110	50
.8176	313.15	19990	50
.8176	323.15	23380	50
.8176	333.15	26780	50
.8176	343.15	29500	50
.8176	353.15	32350	50
.8176	363.15	34450	50
.8176	373.15	35920	50
