Measured thermophysical data. Vapor liquid equilibrium of CO2 in NH3 CO2 SO2 H2O system
Source: Fluid Phase Equilib., 2015, 10.1016/j.fluid.2014.11.015
Compound 1: carbon dioxide, CO2, purity 99.5%
Compound 2: ammonia, H3N, purity 99.9%
Compound 3: water, H2O, purity 99.8%

System: carbon dioxide + ammonia + water; phases: Gas, Liquid
Property: Mole fraction of carbon dioxide (Gas); method: FTIR Spectroscopy
Temperature, K	Solvent: Mole fraction of ammonia	Mole fraction of carbon dioxide	Mole fraction of carbon dioxide	uncertainty
293.15	.0348	.0222	.020913	.000920172
293.15	.0352	.0239	.041453	.001823932
293.15	.035	.0255	.061351	.002699444
293.15	.0348	.0272	.08982	.00395208
293.15	.035	.0289	.115006	.005060264
313.15	.1023	.0299	.005573	.000245212
313.15	.1023	.0393	.017428	.000766832
313.15	.1025	.0487	.032184	.001416096
313.15	.1025	.0578	.10147	.00446468
333.15	.0646	.0221	.037066	.001630904
333.15	.0649	.0252	.049563	.002180772
333.15	.0646	.0283	.053874	.002370456
333.15	.0646	.0314	.084886	.003734984
333.15	.0648	.0344	.124689	.005486316
293.15	.0529	.0207	.003402	.000149688
293.15	.0529	.0257	.007374	.000324456
293.15	.0528	.0307	.020136	.000885984
293.15	.0536	.0356	.043364	.001908016
293.15	.0532	.0405	.079896	.003515424
293.15	.0531	.0207	.007329	.000322476
293.15	.0531	.0257	.026919	.001184436
293.15	.0528	.0307	.06456	.00284064
293.15	.0528	.0356	.087366	.003844104
293.15	.0542	.0341	.038302	.001685288
293.15	.053	.0157	.005731	.000252164
293.15	.0529	.0207	.025689	.001130316
293.15	.0528	.0257	.044978	.001979032
293.15	.0528	.0307	.194725	.0085679
313.15	.0549	.0212	.011877	.000522588
313.15	.0526	.0256	.033592	.001478048
313.15	.053	.0357	.161527	.007107188
313.15	.0526	.0304	.073127	.003217588
313.15	.053	.0357	.078135	.00343794
313.15	.0537	.0159	.007713	.000339372
313.15	.0542	.0211	.008091	.000356004
313.15	.0536	.0264	.021243	.000934692
313.15	.0536	.0264	.02313	.00101772
313.15	.0536	.0264	.042326	.001862344
313.15	.0541	.0315	.097493	.004289692
313.15	.0528	.0106	.00417	.00018348
313.15	.0538	.0157	.014023	.000617012
313.15	.0531	.0207	.071145	.00313038
313.15	.0536	.0258	.094883	.004174852
333.15	.053	.0106	.004181	.000183964
333.15	.0529	.0157	.013451	.000591844
333.15	.0531	.0206	.030391	.001337204
333.15	.0529	.0257	.071686	.003154184
333.15	.0531	.0307	.112313	.004941772
333.15	.0528	.0054	.003309	.000145596
333.15	.053	.0105	.008496	.000373824
333.15	.0532	.0156	.027462	.001208328
333.15	.0528	.0207	.088511	.003894484
333.15	.0534	.0258	.141891	.006243204
333.15	.0529	.0054	.004402	.000193688
333.15	.0529	.0105	.022601	.000994444
333.15	.0528	.0156	.051125	.0022495
333.15	.0529	.0207	.175689	.007730316
313.15	.0266	.0105	.010831	.000476564
313.15	.0266	.0131	.023102	.001016488
313.15	.0264	.0156	.052753	.002321132
313.15	.0264	.0182	.066107	.002908708
313.15	.0264	.0079	.007939	.000349316
313.15	.0264	.0104	.022294	.000980936
313.15	.027	.0131	.047376	.002084544
313.15	.0264	.0157	.091197	.004012668
313.15	.079	.0232	.00516	.00022704
313.15	.0791	.0307	.013824	.000608256
313.15	.0794	.0378	.027338	.001202872
313.15	.0792	.0453	.053988	.002375472
313.15	.0791	.0233	.009157	.000402908
313.15	.0793	.0308	.030374	.001336456
313.15	.0791	.0381	.066916	.002944304
313.15	.0793	.0417	.082986	.003651384
