Measured thermophysical data. Isobaric vapor-liquid equilibrium of acetic acid + N,N-dimethylacetamide + 1-butyl-3-methylimidazolium Bis [(trifluoromethyl)sulfonyl]-imide
Source: Fluid Phase Equilib., 2016, 10.1016/j.fluid.2015.11.007
Compound 1: acetic acid, C2H4O2, purity 99.5%
Compound 2: N,N-dimethylacetamide, C4H9NO, purity 99.5%
Compound 3: 1-butyl-3-methylimidazolium bis(trifluoromethylsulfonyl)imide [BMIM][NTf2], C10H15F6N3O4S2, purity 99.0%

System: acetic acid + N,N-dimethylacetamide; phases: Liquid, Gas
Property: Boiling temperature at pressure P, K (Liquid); method: Ebulliometric method (Recirculating still)
Mole fraction of acetic acid	Pressure, kPa	Boiling temperature at pressure P, K	uncertainty
.088	12	375.46	.02
.265	12	381.75	.02
.358	12	382.28	.02
.379	12	382.83	.02
.44	12	379.46	.02
.501	12	376.35	.02
.59	12	367.38	.02
.648	12	360.35	.02
.705	12	353.88	.02
.788	12	346.27	.02
.146	7	364.85	.02
.205	7	367.44	.02
.29	7	369.58	.02
.339	7	369.85	.02
.43	7	368.46	.02
.513	7	361.95	.02
.607	7	353.26	.02
.732	7	339.48	.02
.875	7	328.05	.02
.979	7	322.78	.02

System: acetic acid + N,N-dimethylacetamide; phases: Gas, Liquid
Property: Mole fraction of acetic acid (Gas); method: Chromatography
Mole fraction of acetic acid	Pressure, kPa	Mole fraction of acetic acid	uncertainty
.088	12	.007	.005
.265	12	.17	.005
.358	12	.396	.005
.379	12	.491	.005
.44	12	.664	.005
.501	12	.815	.005
.59	12	.935	.005
.648	12	.974	.005
.705	12	.987	.005
.788	12	.999	.005
.146	7	.028	.005
.205	7	.081	.005
.29	7	.226	.005
.339	7	.359	.005
.43	7	.648	.005
.513	7	.841	.005
.607	7	.95	.005
.732	7	.995	.005
.875	7	.999	.005
.979	7	1	.005

System: acetic acid + N,N-dimethylacetamide + 1-butyl-3-methylimidazolium bis(trifluoromethylsulfonyl)imide [BMIM][NTf2]; phases: Liquid, Gas
Property: Mole fraction of N,N-dimethylacetamide (Liquid); method: Chromatography
Property: Mole fraction of acetic acid (Gas); method: Chromatography
Property: Mole fraction of N,N-dimethylacetamide (Gas); method: Chromatography
Temperature, K	Pressure, kPa	Mole fraction of acetic acid	Mole fraction of N,N-dimethylacetamide	uncertainty	Mole fraction of acetic acid	uncertainty	Mole fraction of N,N-dimethylacetamide	uncertainty
390.15	12	.057	.682	.005	.052	.005	.948	.005
391.65	12	.114	.623	.005	.15	.005	.85	.005
393.05	12	.145	.588	.005	.249	.005	.751	.005
392.15	12	.201	.532	.005	.426	.005	.574	.005
380.73	12	.372	.366	.005	.9	.005	.1	.005
374.06	12	.423	.302	.005	.969	.005	.031	.005
359.85	12	.54	.197	.005	.997	.005	.003	.005
350.35	12	.624	.114	.005	1	.005	0	.005
403.61	12	.044	.535	.005	.112	.005	.888	.005
404.05	12	.107	.466	.005	.374	.005	.626	.005
403.65	12	.134	.434	.005	.502	.005	.498	.005
401.05	12	.179	.391	.005	.701	.005	.299	.005
396.85	12	.214	.355	.005	.831	.005	.169	.005
376.45	12	.356	.216	.005	.989	.005	.011	.005
367.9	12	.414	.157	.005	.996	.005	.004	.005
360.45	12	.478	.097	.005	1	.005	0	.005
413.85	12	.031	.462	.005	.176	.005	.824	.005
413.05	12	.058	.414	.005	.34	.005	.66	.005
412.85	12	.073	.406	.005	.432	.005	.568	.005
411.25	12	.091	.39	.005	.535	.005	.465	.005
408.75	12	.121	.356	.005	.7	.005	.3	.005
405.15	12	.149	.332	.005	.813	.005	.187	.005
400.05	12	.184	.295	.005	.926	.005	.074	.005
369.15	12	.369	.101	.005	1	.005	0	.005

System: acetic acid + N,N-dimethylacetamide + 1-butyl-3-methylimidazolium bis(trifluoromethylsulfonyl)imide [BMIM][NTf2]; phases: Liquid, Gas
Property: Mole fraction of N,N-dimethylacetamide (Liquid); method: Chromatography
Property: Mole fraction of acetic acid (Gas); method: Chromatography
Property: Mole fraction of N,N-dimethylacetamide (Gas); method: Chromatography
Temperature, K	Pressure, kPa	Mole fraction of acetic acid	Mole fraction of N,N-dimethylacetamide	uncertainty	Mole fraction of acetic acid	uncertainty	Mole fraction of N,N-dimethylacetamide	uncertainty
377.85	7	.061	.689	.004	.051	.003	.949	.003
363.15	7	.354	.237	.004	.99	.003	.01	.003
353.15	7	.425	.164	.004	.999	.003	.001	.003
378.05	7	.089	.659	.004	.099	.003	.901	.003
349.15	7	.46	.129	.004	1	.003	0	.003
341.55	7	.54	.05	.004	1	.003	0	.003
401.85	7	.021	.472	.004	.12	.003	.88	.003
401.05	7	.055	.437	.004	.34	.003	.66	.003
400.25	7	.086	.4	.004	.561	.003	.439	.003
396.25	7	.122	.364	.004	.74	.003	.26	.003
393.65	7	.142	.342	.004	.852	.003	.148	.003
340.65	7	.606	.139	.004	1	.003	0	.003
376.15	7	.24	.241	.004	.99	.003	.01	.003
369.75	7	.279	.203	.004	.999	.003	.001	.003
361.75	7	.333	.148	.004	1	.003	0	.003
380.05	7	.15	.597	.004	.25	.003	.75	.003
379.55	7	.214	.531	.004	.46	.003	.54	.003
377.55	7	.267	.477	.004	.669	.003	.331	.003
373.55	7	.319	.425	.004	.799	.003	.201	.003
364.15	7	.398	.346	.004	.945	.003	.055	.003
359.35	7	.436	.313	.004	.971	.003	.029	.003
347.25	7	.545	.195	.004	.998	.003	.002	.003
391.05	7	.04	.552	.004	.092	.003	.908	.003
391.25	7	.06	.531	.004	.169	.003	.831	.003
391.55	7	.091	.499	.004	.3	.003	.7	.003
390.05	7	.13	.462	.004	.5	.003	.5	.003
388.45	7	.165	.425	.004	.65	.003	.35	.003
384.75	7	.202	.387	.004	.781	.003	.219	.003
377.95	7	.253	.336	.004	.905	.003	.095	.003
