Measured thermophysical data. Vapor-liquid equilibrium measurements and modeling for the cyclohexane + n-hexanoic acid binary system
Source: Fluid Phase Equilib., 2011, 10.1016/j.fluid.2011.06.027
Compound 1: cyclohexane, C6H12, purity 99.8%
Compound 2: hexanoic acid, C6H12O2, purity 99%

System: cyclohexane + hexanoic acid; phases: Gas, Liquid
Property: Mole fraction of cyclohexane (Gas); method: Chromatography
Temperature, K	Mole fraction of cyclohexane	Mole fraction of cyclohexane	uncertainty
413.46	.648	.983	.00983
413.46	.688	.985	.00985
413.46	.726	.986	.00986
413.46	.769	.989	.00989
413.46	.814	.991	.00991
413.46	.9	.994	.00994
423.48	.494	.973	.00973
423.48	.537	.975	.00975
423.48	.592	.981	.00981
423.48	.665	.984	.00984
423.48	.755	.988	.00988
423.48	.844	.99	.0099
423.48	.924	.994	.00994
463.63	.228	.846	.00846
463.63	.304	.888	.00888
463.63	.367	.908	.00908
463.63	.442	.926	.00926
463.63	.527	.941	.00941
463.63	.608	.953	.00953
463.63	.681	.962	.00962
463.63	.753	.971	.00971
463.63	.835	.98	.0098
463.63	.913	.987	.00987
483.69	.142	.7	.007
483.69	.212	.782	.00782
483.69	.291	.839	.00839
483.69	.368	.872	.00872
483.69	.447	.904	.00904
483.69	.531	.922	.00922
483.69	.621	.939	.00939
483.69	.713	.951	.00951
483.69	.819	.966	.00966
483.69	.909	.981	.00981

System: cyclohexane + hexanoic acid; phases: Gas, Liquid
Property: Vapor or sublimation pressure, kPa (Gas); method: Closed cell (Static) method
Temperature, K	Mole fraction of cyclohexane	Vapor or sublimation pressure, kPa	uncertainty
413.46	.648	353.6	1
413.46	.688	365.2	1
413.46	.726	376.9	1
413.46	.769	389.9	1
413.46	.814	403.1	1
413.46	.9	425.4	1
423.48	.494	351.8	1
423.48	.537	377.5	1
423.48	.592	408.1	1
423.48	.665	437	1
423.48	.755	467.5	1
423.48	.844	495.4	1
423.48	.924	526	1
463.63	.228	383.1	1
463.63	.304	468.1	1
463.63	.367	536.7	1
463.63	.442	611.2	1
463.63	.527	690.6	1
463.63	.608	769.4	1
463.63	.681	841.7	1
463.63	.753	920.1	1
463.63	.835	995.3	1
463.63	.913	1065.9	1
483.69	.142	374.7	1
483.69	.212	488.7	1
483.69	.291	618.7	1
483.69	.368	732.8	1
483.69	.447	858.4	1
483.69	.531	979.7	1
483.69	.621	1103.7	1
483.69	.713	1224	1
483.69	.819	1346	1
483.69	.909	1464.6	1
