Measured thermophysical data. Measurement and correlation of solubility of D-camphor-10-sulfonic acid in pure solvents
Source: Fluid Phase Equilib., 2015, 10.1016/j.fluid.2015.04.014
Compound 1: (1S)-(+)-10-camphorsulfonic acid, C10H16O4S, purity 99%
Compound 2: ethyl acetate, C4H8O2, purity 99%
Compound 3: butyl acetate, C6H12O2, purity 99%
Compound 4: methyl acetate, C3H6O2, purity 99%
Compound 5: isopropyl acetate, C5H10O2, purity 99%
Compound 6: glacial acetic acid, C2H4O2, purity 99%
Compound 7: acetic anhydride, C4H6O3, purity 99%
Compound 8: propionic acid, C3H6O2, purity 99%

System: (1S)-(+)-10-camphorsulfonic acid; phases: Crystal, Liquid, Air at 1 atmosphere
Property: Normal melting temperature, K (Crystal); method: Visual observation
Normal melting temperature, K	uncertainty
471.15	2

System: acetic anhydride + (1S)-(+)-10-camphorsulfonic acid; phases: Liquid, Crystal
Fixed: Pressure, kPa = 101
Property: Mole fraction of (1S)-(+)-10-camphorsulfonic acid (Liquid); method: Phase equilibration
Temperature, K	Mole fraction of (1S)-(+)-10-camphorsulfonic acid	uncertainty
305.7	.099	.0005
310.6	.1225	.0005
315.1	.134	.0005
317.4	.15	.0005
321.4	.1607	.0005
324.9	.1729	.0005
328.9	.1788	.0005
331.7	.1814	.0005

System: glacial acetic acid + (1S)-(+)-10-camphorsulfonic acid; phases: Liquid, Crystal
Fixed: Pressure, kPa = 101
Property: Mole fraction of (1S)-(+)-10-camphorsulfonic acid (Liquid); method: Phase equilibration
Temperature, K	Mole fraction of (1S)-(+)-10-camphorsulfonic acid	uncertainty
305.7	.0236	.0005
310.6	.0278	.0005
313.7	.0316	.0005
315.1	.0339	.0005
320.1	.0409	.0005
321.4	.039	.0005
324.9	.0459	.0005
329.1	.0546	.0005
334.6	.0726	.0005
339.1	.0906	.0005

System: butyl acetate + (1S)-(+)-10-camphorsulfonic acid; phases: Liquid, Crystal
Fixed: Pressure, kPa = 101
Property: Mole fraction of (1S)-(+)-10-camphorsulfonic acid (Liquid); method: Phase equilibration
Temperature, K	Mole fraction of (1S)-(+)-10-camphorsulfonic acid	uncertainty
313.7	.035	.0005
316.6	.0375	.0005
317.4	.0375	.0005
321.4	.0403	.0005
324.9	.0415	.0005
328.9	.0455	.0005
331.7	.048	.0005

System: ethyl acetate + (1S)-(+)-10-camphorsulfonic acid; phases: Liquid, Crystal
Fixed: Pressure, kPa = 101
Property: Mole fraction of (1S)-(+)-10-camphorsulfonic acid (Liquid); method: Phase equilibration
Temperature, K	Mole fraction of (1S)-(+)-10-camphorsulfonic acid	uncertainty
310.6	.041	.0005
315.1	.0475	.0005
320.1	.0514	.0005
324.3	.0586	.0005
329.1	.0649	.0005
334.6	.0751	.0005
339.1	.0839	.0005

System: isopropyl acetate + (1S)-(+)-10-camphorsulfonic acid; phases: Liquid, Crystal
Fixed: Pressure, kPa = 101
Property: Mole fraction of (1S)-(+)-10-camphorsulfonic acid (Liquid); method: Phase equilibration
Temperature, K	Mole fraction of (1S)-(+)-10-camphorsulfonic acid	uncertainty
305.7	.0251	.0005
310.6	.0312	.0005
315.1	.0368	.0005
320.1	.0394	.0005
324.3	.0465	.0005
329.1	.0546	.0005
334.6	.0549	.0005
339.1	.0618	.0005

System: methyl acetate + (1S)-(+)-10-camphorsulfonic acid; phases: Liquid, Crystal
Fixed: Pressure, kPa = 101
Property: Mole fraction of (1S)-(+)-10-camphorsulfonic acid (Liquid); method: Phase equilibration
Temperature, K	Mole fraction of (1S)-(+)-10-camphorsulfonic acid	uncertainty
303.8	.0404	.0005
305.7	.0426	.0005
310.6	.0485	.0005
315.1	.0588	.0005
320.1	.0663	.0005
324.3	.0775	.0005
329.1	.0863	.0005

System: propionic acid + (1S)-(+)-10-camphorsulfonic acid; phases: Liquid, Crystal
Fixed: Pressure, kPa = 101
Property: Mole fraction of (1S)-(+)-10-camphorsulfonic acid (Liquid); method: Phase equilibration
Temperature, K	Mole fraction of (1S)-(+)-10-camphorsulfonic acid	uncertainty
303.8	.011	.0005
305.7	.0127	.0005
310.6	.0164	.0005
315.1	.0209	.0005
320.1	.0259	.0005
324.3	.0316	.0005
329.1	.0402	.0005
334.6	.0525	.0005
339.1	.0645	.0005
