Measured thermophysical data. Isothermal vapor   liquid and vapor liquid liquid equilibrium for the ternary  system ethanol + water + diethyl carbonate and constituent binary systems at  different temperatures
Source: Fluid Phase Equilib., 2013, 10.1016/j.fluid.2012.11.026
Compound 1: diethyl carbonate, C5H10O3, purity 99.9%
Compound 2: ethanol, C2H6O, purity 99.9%
Compound 3: water, H2O, purity 99.8%

System: ethanol + water; phases: Liquid, Gas
Property: Vapor or sublimation pressure, kPa (Liquid); method: Closed cell (Static) method
Mole fraction of ethanol	Temperature, K	Vapor or sublimation pressure, kPa	uncertainty
0	353.15	47.3296	.3118
.0511	353.15	69.9803	.3118
.0986	353.15	79.9084	.3118
.1999	353.15	92.6603	.3118
.2986	353.15	95.0835	.3118
.3978	353.15	99.855	.3118
.4984	353.15	102.4467	.3118
.5982	353.15	105.8359	.3118
.6975	353.15	109.3741	.3118
.8045	353.15	111.0992	.3118
.9119	353.15	110.5348	.3118
1	353.15	108.1362	.3118
0	363.15	70.0715	.3118
.0501	363.15	93.0581	.3118
.0988	363.15	105.8677	.3118
.199	363.15	124.9759	.3118
.2996	363.15	136.954	.3118
.3989	363.15	143.0046	.3118
.505	363.15	148.4755	.3118
.6005	363.15	153.2647	.3118
.6994	363.15	156.5771	.3118
.8193	363.15	159.3388	.3118
.8984	363.15	159.2719	.3118
1	363.15	156.0378	.3118

System: ethanol + water; phases: Gas, Liquid
Property: Mole fraction of ethanol (Gas); method: Chromatography
Mole fraction of ethanol	Temperature, K	Mole fraction of ethanol	uncertainty
0	353.15	0	.0031
.0511	353.15	.3845	.0031
.0986	353.15	.4937	.0031
.1999	353.15	.5535	.0031
.2986	353.15	.6025	.0031
.3978	353.15	.6304	.0031
.4984	353.15	.6776	.0031
.5982	353.15	.7217	.0031
.6975	353.15	.7643	.0031
.8045	353.15	.8231	.0031
.9119	353.15	.9033	.0031
1	353.15	1	.0031
0	363.15	0	.0031
.0501	363.15	.2856	.0031
.0988	363.15	.4168	.0031
.199	363.15	.5324	.0031
.2996	363.15	.588	.0031
.3989	363.15	.6379	.0031
.505	363.15	.6838	.0031
.6005	363.15	.7219	.0031
.6994	363.15	.768	.0031
.8193	363.15	.833	.0031
.8984	363.15	.8913	.0031
1	363.15	1	.0031

System: ethanol + water; phases: Liquid, Gas
Property: Azeotropic composition: mole fraction of ethanol (Liquid); method: By X=Y
Temperature, K	Azeotropic composition: mole fraction of ethanol	uncertainty
363.15	.8694	.002

System: ethanol + diethyl carbonate; phases: Liquid, Gas
Property: Vapor or sublimation pressure, kPa (Liquid); method: Closed cell (Static) method
Mole fraction of ethanol	Temperature, K	Vapor or sublimation pressure, kPa	uncertainty
0	353.15	20.7404	.3746
.0404	353.15	29.8787	.3746
.0974	353.15	42.7144	.3746
.1972	353.15	61.4073	.3746
.2974	353.15	74.2485	.3746
.4029	353.15	83.4558	.3746
.498	353.15	88.929	.3746
.599	353.15	93.0484	.3746
.6992	353.15	96.655	.3746
.8004	353.15	100.4203	.3746
.8999	353.15	104.3305	.3746
.9502	353.15	106.3304	.3746
1	353.15	108.1362	.3746
0	363.15	30.2252	.3746
.051	363.15	52.5796	.3746
.1005	363.15	70.9614	.3746
.2007	363.15	93.4224	.3746
.2984	363.15	107.9488	.3746
.4039	363.15	120.5675	.3746
.4984	363.15	128.9348	.3746
.5987	363.15	134.1041	.3746
.6987	363.15	138.3222	.3746
.8008	363.15	144.5827	.3746
.9003	363.15	150.9327	.3746
.9504	363.15	153.6478	.3746
1	363.15	156.0378	.3746

System: ethanol + diethyl carbonate; phases: Gas, Liquid
Property: Mole fraction of ethanol (Gas); method: Chromatography
Mole fraction of ethanol	Temperature, K	Mole fraction of ethanol	uncertainty
0	353.15	0	.0038
.0404	353.15	.3969	.0038
.0974	353.15	.6259	.0038
.1972	353.15	.7582	.0038
.2974	353.15	.8145	.0038
.4029	353.15	.8445	.0038
.498	353.15	.8645	.0038
.599	353.15	.8829	.0038
.6992	353.15	.8994	.0038
.8004	353.15	.9189	.0038
.8999	353.15	.9484	.0038
.9502	353.15	.9705	.0038
1	353.15	1	.0038
0	363.15	0	.0038
.051	363.15	.4497	.0038
.1005	363.15	.5932	.0038
.2007	363.15	.7407	.0038
.2984	363.15	.8018	.0038
.4039	363.15	.8227	.0038
.4984	363.15	.8346	.0038
.5987	363.15	.8593	.0038
.6987	363.15	.8881	.0038
.8008	363.15	.9109	.0038
.9003	363.15	.9432	.0038
.9504	363.15	.9684	.0038
1	363.15	1	.0038

System: diethyl carbonate + water; phases: Liquid, Gas
Property: Vapor or sublimation pressure, kPa (Liquid); method: Closed cell (Static) method
Mole fraction of water	Temperature, K	Vapor or sublimation pressure, kPa	uncertainty
0	353.15	20.7404	.6563
.0059	353.15	24.6837	.6563
.0123	353.15	28.2711	.6563
.0181	353.15	31.9795	.6563
.0294	353.15	37.8777	.6563
.0471	353.15	46.1585	.6563
.097	353.15	56.5682	.6563
.1971	353.15	61.7617	.6563
.2982	353.15	62.4388	.6563
.4046	353.15	63.3429	.6563
.5028	353.15	63.9567	.6563
.6017	353.15	63.1884	.6563
.703	353.15	64.1455	.6563
.799	353.15	62.4896	.6563
.897	353.15	63.7112	.6563
.9466	353.15	61.796	.6563
.9511	353.15	60.4066	.6563
.9708	353.15	60.4368	.6563
.9802	353.15	57.2897	.6563
.9905	353.15	54.8475	.6563
1	353.15	47.3296	.6563
0	363.15	30.2252	.6563
.0061	363.15	32.5981	.6563
.012	363.15	40.4437	.6563
.0178	363.15	45.0216	.6563
.0247	363.15	50.1116	.6563
.0469	363.15	63.8653	.6563
.0964	363.15	77.6246	.6563
.19	363.15	85.5252	.6563
.3017	363.15	88.4566	.6563
.4008	363.15	91.1044	.6563
.5035	363.15	92.0685	.6563
.6035	363.15	93.4303	.6563
.7043	363.15	91.9711	.6563
.803	363.15	92.8977	.6563
.8994	363.15	91.658	.6563
.9388	363.15	91.2393	.6563
.9502	363.15	88.151	.6563
.9712	363.15	89.0405	.6563
.9807	363.15	86.4139	.6563
.9905	363.15	80.0435	.6563
1	363.15	70.0715	.6563

System: diethyl carbonate + water; phases: Gas, Liquid
Property: Mole fraction of water (Gas); method: Chromatography
Mole fraction of water	Temperature, K	Mole fraction of water	uncertainty
0	353.15	0	.0057
.0059	353.15	.1699	.0057
.0123	353.15	.2964	.0057
.0181	353.15	.367	.0057
.0294	353.15	.4613	.0057
.0471	353.15	.5311	.0057
.097	353.15	.6356	.0057
.1971	353.15	.6956	.0057
.2982	353.15	.7081	.0057
.4046	353.15	.7028	.0057
.5028	353.15	.6969	.0057
.6017	353.15	.7028	.0057
.703	353.15	.6863	.0057
.799	353.15	.705	.0057
.897	353.15	.7034	.0057
.9466	353.15	.7074	.0057
.9511	353.15	.7252	.0057
.9708	353.15	.7302	.0057
.9802	353.15	.754	.0057
.9905	353.15	.8019	.0057
1	353.15	1	.0057
0	363.15	0	.0057
.0061	363.15	.176	.0057
.012	363.15	.2571	.0057
.0178	363.15	.3273	.0057
.0247	363.15	.3876	.0057
.0469	363.15	.4928	.0057
.0964	363.15	.6098	.0057
.19	363.15	.7023	.0057
.3017	363.15	.7053	.0057
.4008	363.15	.7009	.0057
.5035	363.15	.7139	.0057
.6035	363.15	.706	.0057
.7043	363.15	.7172	.0057
.803	363.15	.7009	.0057
.8994	363.15	.7378	.0057
.9388	363.15	.726	.0057
.9502	363.15	.7497	.0057
.9712	363.15	.7423	.0057
.9807	363.15	.7613	.0057
.9905	363.15	.8646	.0057
1	363.15	1	.0057

System: diethyl carbonate + water; phases: Liquid, Gas
Property: Azeotropic composition: mole fraction of diethyl carbonate (Liquid); method: By X=Y
Temperature, K	Azeotropic composition: mole fraction of diethyl carbonate	uncertainty
363.15	.703	.002

System: ethanol + diethyl carbonate + water; phases: Liquid, Gas
Property: Mole fraction of diethyl carbonate (Liquid); method: Chromatography
Property: Mole fraction of water (Gas); method: Chromatography
Property: Mole fraction of diethyl carbonate (Gas); method: Chromatography
Temperature, K	Pressure, kPa	Mole fraction of water	Mole fraction of diethyl carbonate	uncertainty	Mole fraction of water	uncertainty	Mole fraction of diethyl carbonate	uncertainty
353.15	61.78	.0469	.9037	.0025	.4134	.0025	.3572	.0031
353.15	107.16	.2518	.2491	.0025	.316	.0025	.1132	.0031
353.15	112.94	.3095	.0489	.0025	.275	.0025	.0394	.0031
353.15	109.89	.3981	.0986	.0025	.3531	.0025	.0757	.0031
353.15	101.47	.401	.3021	.0025	.454	.0025	.1507	.0031
353.15	104.76	.5022	.1504	.0025	.4249	.0025	.1175	.0031
353.15	106.01	.5052	.125	.0025	.4193	.0025	.1038	.0031
353.15	105.1	.7015	.0295	.0025	.4366	.0025	.0718	.0031
363.15	87.852	.0465	.9058	.0025	.404	.0025	.371	.0031
363.15	134.634	.0483	.5042	.0025	.125	.0025	.188	.0031
363.15	156.649	.0491	.0492	.0025	.073	.0025	.035	.0031
353.15	94.3	.0484	.5032	.0025	.1379	.0025	.1633	.0031
363.15	131.898	.0973	.6537	.0025	.299	.0025	.22	.0031
363.15	147.901	.1012	.2983	.0025	.182	.0025	.134	.0031
363.15	155.271	.119	.146	.0025	.152	.0025	.084	.0031
363.15	147.725	.2019	.3928	.0025	.311	.0025	.166	.0031
363.15	134.188	.2122	.6756	.0025	.53	.0025	.234	.0031
363.15	143.653	.2471	.5006	.0025	.42	.0025	.206	.0031
363.15	152.975	.2508	.249	.0025	.303	.0025	.132	.0031
363.15	160.621	.2978	.0496	.0025	.266	.0025	.041	.0031
363.15	156.736	.3995	.0987	.0025	.34	.0025	.081	.0031
363.15	146.855	.4009	.2953	.0025	.444	.0025	.166	.0031
353.15	109.49	.0488	.0491	.0025	.0757	.0025	.0318	.0031
363.15	150.574	.4978	.1504	.0025	.422	.0025	.133	.0031
363.15	151.976	.5045	.124	.0025	.407	.0025	.115	.0031
363.15	151.376	.7019	.0293	.0025	.451	.0025	.072	.0031
353.15	93.14	.0976	.6531	.0025	.3065	.0025	.2068	.0031
353.15	103.76	.0989	.2994	.0025	.1688	.0025	.118	.0031
353.15	108.91	.1179	.1521	.0025	.1626	.0025	.0755	.0031
353.15	103.54	.2056	.3962	.0025	.3367	.0025	.1465	.0031
353.15	94.72	.2183	.6704	.0025	.547	.0025	.2198	.0031
353.15	100.45	.2481	.5005	.0025	.444	.0025	.1756	.0031

System: ethanol + diethyl carbonate + water; phases: Liquid mixture 2, Liquid mixture 1, Gas
Property: Mole fraction of water (Liquid mixture 2); method: Chromatography
Property: Mole fraction of diethyl carbonate (Liquid mixture 2); method: Chromatography
Property: Mole fraction of water (Liquid mixture 1); method: Chromatography
Property: Mole fraction of diethyl carbonate (Liquid mixture 1); method: Chromatography
Property: Mole fraction of water (Gas); method: Chromatography
Property: Mole fraction of diethyl carbonate (Gas); method: Chromatography
Temperature, K	Pressure, kPa	Mole fraction of water	uncertainty	Mole fraction of diethyl carbonate	uncertainty	Mole fraction of water	uncertainty	Mole fraction of diethyl carbonate	uncertainty	Mole fraction of water	uncertainty	Mole fraction of diethyl carbonate	uncertainty
353.15	.754	.9753	.0075	.0093	.0075	.2874	.0167	.6603	.0167	.6472	.0038	.2344	.0038
353.15	.817	.949	.0075	.0128	.0075	.3622	.0167	.5159	.0167	.5914	.0038	.2011	.0038
353.15	.8	.9283	.0075	.0162	.0075	.4252	.0167	.4091	.0167	.5705	.0038	.1859	.0038
353.15	.818	.9097	.0075	.0197	.0075	.4835	.0167	.3224	.0167	.5599	.0038	.1766	.0038
353.15	.821	.9017	.0075	.0213	.0075	.5093	.0167	.2877	.0167	.5567	.0038	.1733	.0038
353.15	.874	.8697	.0075	.0287	.0075	.6034	.0167	.1812	.0167	.5496	.0038	.1637	.0038
363.15	1.253	.9748	.0075	.0103	.0075	.3277	.0167	.6183	.0167	.6126	.0038	.2683	.0038
363.15	1.268	.9597	.0075	.0133	.0075	.3695	.0167	.5202	.0167	.5533	.0038	.2333	.0038
363.15	1.217	.9352	.0075	.0173	.0075	.4214	.0167	.4256	.0167	.5274	.0038	.2176	.0038
363.15	1.215	.9269	.0075	.0153	.0075	.4779	.0167	.343	.0167	.5177	.0038	.1999	.0038
363.15	1.223	.9119	.0075	.0168	.0075	.5324	.0167	.2773	.0167	.5103	.0038	.1897	.0038
363.15	1.135	.8687	.0075	.0297	.0075	.6357	.0167	.177	.0167	.4981	.0038	.1788	.0038
