Measured thermophysical data. Phase behavior of the ternary 1-hexyl-3-methylimidazolium tetrafluoroborate + carbon dioxide + methanol system
Source: Fluid Phase Equilib., 2010, 10.1016/j.fluid.2010.02.005
Compound 1: 1-hexyl-3-methylimidazolium tetrafluoroborate, C10H19BF4N2
Compound 2: carbon dioxide, CO2, purity 99.995%
Compound 3: methanol, CH4O

System: methanol + carbon dioxide + 1-hexyl-3-methylimidazolium tetrafluoroborate; phases: Gas, Liquid
Fixed: Solvent: Amount ratio of component to other component of binary solvent of methanol = 19
Property: Vapor or sublimation pressure, kPa (Gas); method: Closed cell (Static) method
Mole fraction of carbon dioxide	Temperature, K	Vapor or sublimation pressure, kPa	uncertainty
.402	278.34	3117	2.5
.402	288.31	3957	2.5
.402	293.34	4432	2.5
.402	298.29	4937	2.5
.402	303.3	5477	2.5
.402	308.26	6052	2.5
.402	313.32	6677	2.5
.402	318.23	7322	2.5
.402	323.26	8007	2.5
.402	328.22	8722	2.5
.402	333.25	9477	2.5
.402	338.23	10247	2.5
.402	343.2	11032	2.5
.402	348.17	11842	2.5
.4991	278.33	3519	2.5
.4991	283.37	3979	2.5
.4991	288.32	4474	2.5
.4991	293.32	5014	2.5
.4991	298.32	5604	2.5
.4991	303.31	6239	2.5
.4991	308.24	6919	2.5
.4991	313.26	7674	2.5
.4991	318.25	8499	2.5
.4991	323.24	9424	2.5
.4991	328.19	10494	2.5
.4991	333.24	11744	2.5
.5521	278.31	3684	2.5
.5521	283.33	4164	2.5
.5521	288.33	4679	2.5
.5521	293.31	5244	2.5
.5521	298.26	5854	2.5
.5521	303.23	6524	2.5
.5521	303.3	6529	2.5
.6014	278.31	3752	2.5
.6014	283.3	4232	2.5
.6014	288.33	4757	2.5
.6014	290.73	5042	2.5
.6014	293.33	5332	2.5
.6014	298.27	5937	2.5
.6525	263.47	2554	2.5
.6525	268.37	2924	2.5
.6525	273.14	3319	2.5
.6525	278.35	3784	2.5
