Measured thermophysical data. The study of phase behavior of aqueous  1-propanol/2-propanol/2-butanol/2-methyl-2-propanol systems in the presence  of disodium tartrate or disodium succinate at T = 298.15 K
Source: Fluid Phase Equilib., 2013, 10.1016/j.fluid.2012.10.019
Compound 1: propan-1-ol, C3H8O, purity 99.5%
Compound 2: sec-propyl alcohol, C3H8O, purity 99.5%
Compound 3: butan-2-ol, C4H10O, purity 99.5%
Compound 4: 2-propanol, 2-methyl-, C4H10O, purity 99.5%
Compound 5: L-tartaric acid, disodium salt dihydrate, C4H8Na2O8, purity 99%
Compound 6: disodium succinate, C4H4Na2O4, purity 99%
Compound 7: water, H2O, purity 99.9%

System: propan-1-ol + L-tartaric acid, disodium salt dihydrate + water; phases: Liquid mixture 2, Liquid mixture 1
Fixed: Pressure, kPa = 101
Property: Mass fraction of L-tartaric acid, disodium salt dihydrate (Liquid mixture 2); method: Chromatography
Property: Mass fraction of propan-1-ol (Liquid mixture 1); method: Chromatography
Property: Mass fraction of L-tartaric acid, disodium salt dihydrate (Liquid mixture 1); method: Chromatography
Temperature, K	Mass fraction of propan-1-ol	Mass fraction of L-tartaric acid, disodium salt dihydrate	uncertainty	Mass fraction of propan-1-ol	uncertainty	Mass fraction of L-tartaric acid, disodium salt dihydrate	uncertainty
298.15	.184	.09	.002	.485	.002	.021	.002
298.15	.149	.11	.002	.551	.002	.012	.002
298.15	.142	.116	.002	.574	.002	.011	.002
298.15	.082	.165	.002	.626	.002	.007	.002

System: propan-1-ol + L-tartaric acid, disodium salt dihydrate + water; phases: Liquid, Crystal
Fixed: Temperature, K = 298.15
Fixed: Pressure, kPa = 101
Property: Mole fraction of L-tartaric acid, disodium salt dihydrate (Liquid); method: Titration method
Mole fraction of propan-1-ol	Mole fraction of L-tartaric acid, disodium salt dihydrate	uncertainty
.4931	.0172	.0001
.4827	.0187	.0001
.4327	.0257	.0001
.3951	.032	.0001
.3539	.0403	.0001
.2904	.0515	.0001
.2434	.0622	.0001

System: sec-propyl alcohol + L-tartaric acid, disodium salt dihydrate + water; phases: Liquid, Crystal
Fixed: Temperature, K = 298.15
Fixed: Pressure, kPa = 101
Property: Mole fraction of L-tartaric acid, disodium salt dihydrate (Liquid); method: Titration method
Mole fraction of sec-propyl alcohol	Mole fraction of L-tartaric acid, disodium salt dihydrate	uncertainty
.533	.0135	.0001
.5162	.0151	.0001
.4789	.0214	.0001
.4538	.0259	.0001
.4306	.0315	.0001
.4054	.0373	.0001
.3814	.045	.0001
.3407	.0586	.0001
.2991	.0762	.0001
.2648	.0924	.0001
.2221	.1141	.0001

System: sec-propyl alcohol + L-tartaric acid, disodium salt dihydrate + water; phases: Liquid mixture 2, Liquid mixture 1
Fixed: Pressure, kPa = 101
Property: Mass fraction of L-tartaric acid, disodium salt dihydrate (Liquid mixture 2); method: Titration method
Property: Mass fraction of sec-propyl alcohol (Liquid mixture 1); method: Titration method
Property: Mass fraction of L-tartaric acid, disodium salt dihydrate (Liquid mixture 1); method: Titration method
Temperature, K	Mass fraction of sec-propyl alcohol	Mass fraction of L-tartaric acid, disodium salt dihydrate	uncertainty	Mass fraction of sec-propyl alcohol	uncertainty	Mass fraction of L-tartaric acid, disodium salt dihydrate	uncertainty
298.15	.164	.156	.002	.372	.002	.048	.002
298.15	.105	.194	.002	.411	.002	.039	.002
298.15	.093	.215	.002	.451	.002	.029	.002
298.15	.227	.115	.002	.328	.002	.06	.002

System: butan-2-ol + L-tartaric acid, disodium salt dihydrate + water; phases: Liquid, Crystal
Fixed: Temperature, K = 298.15
Fixed: Pressure, kPa = 101
Property: Mole fraction of L-tartaric acid, disodium salt dihydrate (Liquid); method: Titration method
Mole fraction of butan-2-ol	Mole fraction of L-tartaric acid, disodium salt dihydrate	uncertainty
.161	.0042	.0001
.1523	.0109	.0001
.1466	.0151	.0001
.1452	.0158	.0001
.1397	.0193	.0001
.1289	.0273	.0001
.1228	.0308	.0001
.1165	.0372	.0001
.0981	.0552	.0001
.0805	.0779	.0001

System: butan-2-ol + L-tartaric acid, disodium salt dihydrate + water; phases: Liquid mixture 2, Liquid mixture 1
Property: Mass fraction of L-tartaric acid, disodium salt dihydrate (Liquid mixture 2); method: Titration method
Property: Mass fraction of butan-2-ol (Liquid mixture 1); method: Titration method
Property: Mass fraction of L-tartaric acid, disodium salt dihydrate (Liquid mixture 1); method: Titration method
Temperature, K	Pressure, kPa	Mass fraction of butan-2-ol	Mass fraction of L-tartaric acid, disodium salt dihydrate	uncertainty	Mass fraction of butan-2-ol	uncertainty	Mass fraction of L-tartaric acid, disodium salt dihydrate	uncertainty
298.15	101.325	.152	.01	.002	.479	.002	.0003	.002
298.15	101.325	.147	.014	.002	.483	.002	.0004	.002
298.15	101.325	.142	.016	.002	.489	.002	.0004	.002
298.15	101.325	.138	.02	.002	.49	.002	.0003	.002
298.15	101.325	.132	.024	.002	.495	.002	.0002	.002

System: 2-propanol, 2-methyl- + L-tartaric acid, disodium salt dihydrate + water; phases: Liquid, Crystal
Fixed: Temperature, K = 298.15
Fixed: Pressure, kPa = 101
Property: Mole fraction of L-tartaric acid, disodium salt dihydrate (Liquid); method: Titration method
Mole fraction of 2-propanol, 2-methyl-	Mole fraction of L-tartaric acid, disodium salt dihydrate	uncertainty
.5145	.0109	.0001
.4975	.0129	.0001
.4863	.014	.0001
.4561	.0174	.0001
.4214	.0219	.0001
.3771	.0285	.0001
.3508	.033	.0001
.3231	.0373	.0001
.2965	.0421	.0001
.263	.0488	.0001
.2188	.0601	.0001
.1826	.073	.0001

System: 2-propanol, 2-methyl- + L-tartaric acid, disodium salt dihydrate + water; phases: Liquid mixture 2, Liquid mixture 1
Property: Mass fraction of L-tartaric acid, disodium salt dihydrate (Liquid mixture 2); method: Titration method
Property: Mass fraction of 2-propanol, 2-methyl- (Liquid mixture 1); method: Titration method
Property: Mass fraction of L-tartaric acid, disodium salt dihydrate (Liquid mixture 1); method: Titration method
Temperature, K	Pressure, kPa	Mass fraction of 2-propanol, 2-methyl-	Mass fraction of L-tartaric acid, disodium salt dihydrate	uncertainty	Mass fraction of 2-propanol, 2-methyl-	uncertainty	Mass fraction of L-tartaric acid, disodium salt dihydrate	uncertainty
298.15	101.325	.251	.052	.002	.462	.002	.016	.002
298.15	101.325	.203	.067	.002	.508	.002	.013	.002
298.15	101.325	.163	.085	.002	.562	.002	.009	.002
298.15	101.325	.138	.103	.002	.598	.002	.007	.002

System: propan-1-ol + disodium succinate + water; phases: Liquid, Crystal
Fixed: Temperature, K = 298.15
Fixed: Pressure, kPa = 101
Property: Mole fraction of disodium succinate (Liquid); method: Titration method
Mole fraction of propan-1-ol	Mole fraction of disodium succinate	uncertainty
.57	.0105	.0001
.4818	.0193	.0001
.4051	.03	.0001
.3139	.043	.0001
.2548	.0532	.0001
.2112	.0625	.0001
.1805	.0703	.0001
.1631	.0783	.0001

System: propan-1-ol + disodium succinate + water; phases: Liquid mixture 2, Liquid mixture 1
Property: Mass fraction of disodium succinate (Liquid mixture 2); method: Titration method
Property: Mass fraction of propan-1-ol (Liquid mixture 1); method: Titration method
Property: Mass fraction of disodium succinate (Liquid mixture 1); method: Titration method
Temperature, K	Pressure, kPa	Mass fraction of propan-1-ol	Mass fraction of disodium succinate	uncertainty	Mass fraction of propan-1-ol	uncertainty	Mass fraction of disodium succinate	uncertainty
298.15	101.325	.189	.112	.002	.524	.002	.017	.002
298.15	101.325	.137	.14	.002	.61	.002	.01	.002
298.15	101.325	.133	.145	.002	.63	.002	.009	.002
298.15	101.325	.132	.15	.002	.649	.002	.008	.002
298.15	101.325	.101	.176	.002	.687	.002	.005	.002

System: sec-propyl alcohol + disodium succinate + water; phases: Liquid, Crystal
Fixed: Temperature, K = 298.15
Fixed: Pressure, kPa = 101
Property: Mole fraction of disodium succinate (Liquid); method: Titration method
Mole fraction of sec-propyl alcohol	Mole fraction of disodium succinate	uncertainty
.6585	.009	.0001
.6269	.012	.0001
.6007	.0143	.0001
.5506	.0222	.0001
.4616	.0362	.0001
.24	.1031	.0001
.1285	.1568	.0001
.1113	.1736	.0001
.1012	.1871	.0001
.0939	.1994	.0001

System: sec-propyl alcohol + disodium succinate + water; phases: Liquid mixture 2, Liquid mixture 1
Property: Mass fraction of disodium succinate (Liquid mixture 2); method: Titration method
Property: Mass fraction of sec-propyl alcohol (Liquid mixture 1); method: Titration method
Property: Mass fraction of disodium succinate (Liquid mixture 1); method: Titration method
Temperature, K	Pressure, kPa	Mass fraction of sec-propyl alcohol	Mass fraction of disodium succinate	uncertainty	Mass fraction of sec-propyl alcohol	uncertainty	Mass fraction of disodium succinate	uncertainty
298.15	101.325	.24	.103	.002	.462	.002	.036	.002
298.15	101.325	.129	.157	.002	.551	.002	.022	.002
298.15	101.325	.111	.174	.002	.601	.002	.014	.002
298.15	101.325	.101	.187	.002	.627	.002	.012	.002
298.15	101.325	.094	.199	.002	.659	.002	.009	.002

System: butan-2-ol + disodium succinate + water; phases: Liquid, Crystal
Fixed: Temperature, K = 298.15
Fixed: Pressure, kPa = 101
Property: Mole fraction of disodium succinate (Liquid); method: Titration method
Mole fraction of butan-2-ol	Mole fraction of disodium succinate	uncertainty
.1245	.0231	.0001
.1177	.0287	.0001
.1066	.0395	.0001
.0923	.0573	.0001
.0863	.0659	.0001
.0815	.0754	.0001
.0731	.0881	.0001
.0682	.0967	.0001
.0653	.1026	.0001
.063	.1078	.0001

System: butan-2-ol + disodium succinate + water; phases: Liquid mixture 2, Liquid mixture 1
Property: Mass fraction of disodium succinate (Liquid mixture 2); method: Titration method
Property: Mass fraction of butan-2-ol (Liquid mixture 1); method: Titration method
Property: Mass fraction of disodium succinate (Liquid mixture 1); method: Titration method
Temperature, K	Pressure, kPa	Mass fraction of butan-2-ol	Mass fraction of disodium succinate	uncertainty	Mass fraction of butan-2-ol	uncertainty	Mass fraction of disodium succinate	uncertainty
298.15	101.325	.124	.019	.002	.487	.002	.0003	.002
298.15	101.325	.111	.029	.002	.496	.002	.0004	.002
298.15	101.325	.114	.04	.002	.5	.002	.0003	.002
298.15	101.325	.082	.059	.002	.505	.002	.0005	.002

System: 2-propanol, 2-methyl- + disodium succinate + water; phases: Liquid, Crystal
Fixed: Temperature, K = 298.15
Fixed: Pressure, kPa = 101
Property: Mole fraction of disodium succinate (Liquid); method: Titration method
Mole fraction of 2-propanol, 2-methyl-	Mole fraction of disodium succinate	uncertainty
.439	.018	.0001
.4265	.0194	.0001
.4051	.0218	.0001
.3879	.024	.0001
.3635	.0269	.0001
.3357	.0308	.0001
.3212	.0323	.0001
.2866	.0372	.0001
.2784	.0383	.0001
.2219	.0476	.0001
.1827	.059	.0001
.1528	.0723	.0001

System: 2-propanol, 2-methyl- + disodium succinate + water; phases: Liquid mixture 2, Liquid mixture 1
Property: Mass fraction of disodium succinate (Liquid mixture 2); method: Titration method
Property: Mass fraction of 2-propanol, 2-methyl- (Liquid mixture 1); method: Titration method
Property: Mass fraction of disodium succinate (Liquid mixture 1); method: Titration method
Temperature, K	Pressure, kPa	Mass fraction of 2-propanol, 2-methyl-	Mass fraction of disodium succinate	uncertainty	Mass fraction of 2-propanol, 2-methyl-	uncertainty	Mass fraction of disodium succinate	uncertainty
298.15	101.325	.182	.063	.002	.606	.002	.006	.002
298.15	101.325	.177	.067	.002	.623	.002	.005	.002
298.15	101.325	.13	.091	.002	.659	.002	.004	.002
298.15	101.325	.118	.103	.002	.682	.002	.003	.002
