Measured thermophysical data. Vapour pressure and enthalpy of vaporization of di-iso-propyl and di-tert-butyl esters of dicarboxylic acids
Source: Fluid Phase Equilib., 2011, 10.1016/j.fluid.2011.07.007
Compound 1: diisopropyl oxalate, C8H14O4
Compound 2: diisopropyl malonate, C9H16O4
Compound 3: bis(1-methylethyl) butanedioate, C10H18O4
Compound 4: bis(1-methylethyl) pentanedioate, C11H20O4
Compound 5: di-tert-butyl oxalate, C10H18O4
Compound 6: bis(1,1-dimethylethyl) propanedioate, C11H20O4
Compound 7: di-tert-butyl succinate, C12H22O4
Compound 8: di-tert-butyl glutarate, C13H24O4
Compound 9: di-tert-butyl adipate, C14H26O4

System: diisopropyl oxalate; phases: Liquid, Gas
Property: Vapor or sublimation pressure, kPa (Liquid); method: Transpiration method
Temperature, K	Vapor or sublimation pressure, kPa	uncertainty
287.5	.0149	.000447
290.4	.0197	.000591
293.3	.0254	.000762
297.3	.035	.00105
300.3	.0452	.001356
303.3	.0576	.001728
306.3	.0712	.002136
308.3	.0846	.002538
311.2	.1081	.003243
313.3	.1266	.003798
316.3	.151	.00453
318.4	.1722	.005166
318.5	.1731	.005193
321.2	.2066	.006198
322.4	.2247	.006741
323.6	.2533	.007599
326.4	.2884	.008652
330.5	.3766	.011298

System: diisopropyl oxalate; phases: Liquid, Gas
Property: Molar enthalpy of vaporization or sublimation, kJ/mol (Liquid); method: Derived by Second law
Temperature, K	Molar enthalpy of vaporization or sublimation, kJ/mol	uncertainty
287.5	61.13	3.0565
290.4	60.86	3.043
293.3	60.6	3.03
297.3	60.23	3.0115
300.3	59.96	2.998
303.3	59.69	2.9845
306.3	59.41	2.9705
308.3	59.23	2.9615
311.2	58.96	2.948
313.3	58.77	2.9385
316.3	58.5	2.925
318.4	58.31	2.9155
318.5	58.3	2.915
321.2	58.05	2.9025
322.4	57.94	2.897
323.6	57.83	2.8915
326.4	57.57	2.8785
330.5	57.2	2.86

System: diisopropyl malonate; phases: Liquid, Gas
Property: Vapor or sublimation pressure, kPa (Liquid); method: Transpiration method
Temperature, K	Vapor or sublimation pressure, kPa	uncertainty
289.3	.00784	.0002352
292.5	.0105	.000315
295.4	.0139	.000417
298.4	.0172	.000516
301.4	.0228	.000684
304.4	.0293	.000879
307.4	.0375	.001125
310.4	.0471	.001413
313.4	.0581	.001743
315.4	.0688	.002064
316.5	.0757	.002271
318.5	.0862	.002586
319.4	.0965	.002895
321.5	.1068	.003204
322.5	.1138	.003414
323.5	.1282	.003846
325.4	.1468	.004404

System: diisopropyl malonate; phases: Liquid, Gas
Property: Molar enthalpy of vaporization or sublimation, kJ/mol (Liquid); method: Derived by Second law
Temperature, K	Molar enthalpy of vaporization or sublimation, kJ/mol	uncertainty
289.3	64.81	3.2405
292.5	64.49	3.2245
295.4	64.2	3.21
298.4	63.9	3.195
301.4	63.6	3.18
304.4	63.3	3.165
307.4	63	3.15
310.4	62.7	3.135
313.4	62.4	3.12
315.4	62.2	3.11
316.5	62.09	3.1045
318.5	61.9	3.095
319.4	61.81	3.0905
321.5	61.6	3.08
322.5	61.5	3.075
323.5	61.4	3.07
325.4	61.21	3.0605

System: bis(1-methylethyl) butanedioate; phases: Liquid, Gas
Property: Vapor or sublimation pressure, kPa (Liquid); method: Transpiration method
Temperature, K	Vapor or sublimation pressure, kPa	uncertainty
304.4	.0113	.000339
307.4	.0147	.000441
310.4	.0186	.000558
313.4	.0236	.000708
316.4	.0301	.000903
318.5	.0352	.001056
321.4	.0448	.001344
323.4	.0527	.001581
326.4	.0651	.001953
328.5	.0749	.002247
331.4	.096	.00288
333.3	.1092	.003276

System: bis(1-methylethyl) butanedioate; phases: Liquid, Gas
Property: Molar enthalpy of vaporization or sublimation, kJ/mol (Liquid); method: Derived by Second law
Temperature, K	Molar enthalpy of vaporization or sublimation, kJ/mol	uncertainty
304.4	67.6	3.38
307.4	67.28	3.364
310.4	66.95	3.3475
313.4	66.63	3.3315
316.4	66.31	3.3155
318.5	66.08	3.304
321.4	65.77	3.2885
323.4	65.55	3.2775
326.4	65.23	3.2615
328.5	65	3.25
331.4	64.69	3.2345
333.3	64.48	3.224

System: bis(1-methylethyl) pentanedioate; phases: Liquid, Gas
Property: Vapor or sublimation pressure, kPa (Liquid); method: Transpiration method
Temperature, K	Vapor or sublimation pressure, kPa	uncertainty
294.5	.00137	.0000411
297.5	.00175	.0000525
300.5	.00246	.0000738
303.4	.00328	.0000984
306.4	.00433	.0001299
309.5	.00594	.0001782
312.5	.00714	.0002142
315.5	.00958	.0002874
318.6	.0126	.000378
322.7	.017	.00051
324.4	.0199	.000597
327.4	.0251	.000753

System: bis(1-methylethyl) pentanedioate; phases: Liquid, Gas
Property: Molar enthalpy of vaporization or sublimation, kJ/mol (Liquid); method: Derived by Second law
Temperature, K	Molar enthalpy of vaporization or sublimation, kJ/mol	uncertainty
294.5	72.98	3.649
297.5	72.63	3.6315
300.5	72.28	3.614
303.4	71.94	3.597
306.4	71.59	3.5795
309.5	71.23	3.5615
312.5	70.88	3.544
315.5	70.53	3.5265
318.6	70.17	3.5085
322.7	69.7	3.485
324.4	69.5	3.475
327.4	69.15	3.4575

System: di-tert-butyl oxalate; phases: Crystal, Gas
Property: Vapor or sublimation pressure, kPa (Crystal); method: Transpiration method
Temperature, K	Vapor or sublimation pressure, kPa	uncertainty
293.8	.00391	.0001173
296.7	.0058	.000174
299.7	.00793	.0002379
302.7	.0109	.000327
305.7	.0154	.000462
308.3	.0201	.000603
308.8	.0217	.000651
311.2	.0276	.000828
311.7	.0293	.000879
314.2	.0384	.001152
314.7	.0405	.001215
317.6	.0574	.001722
320.7	.0769	.002307
323.2	.0956	.002868
323.6	.1	.003
326.6	.1313	.003939
329.6	.1637	.004911
333.2	.2253	.006759
333.7	.2468	.007404
338.2	.3739	.011217
338.6	.3689	.011067

System: di-tert-butyl oxalate; phases: Crystal, Gas
Property: Molar enthalpy of vaporization or sublimation, kJ/mol (Crystal); method: Derived by Second law
Temperature, K	Molar enthalpy of vaporization or sublimation, kJ/mol	uncertainty
293.8	85	4.25
296.7	84.87	4.2435
299.7	84.74	4.237
302.7	84.61	4.2305
305.7	84.47	4.2235
308.3	84.36	4.218
308.8	84.34	4.217
311.2	84.23	4.2115
311.7	84.21	4.2105
314.2	84.1	4.205
314.7	84.07	4.2035
317.6	83.95	4.1975
320.7	83.81	4.1905
323.2	83.7	4.185
323.6	83.68	4.184
326.6	83.55	4.1775
329.6	83.41	4.1705
333.2	83.25	4.1625
333.7	83.23	4.1615
338.2	83.03	4.1515
338.6	83.02	4.151

System: di-tert-butyl oxalate; phases: Liquid, Gas
Property: Vapor or sublimation pressure, kPa (Liquid); method: Transpiration method
Temperature, K	Vapor or sublimation pressure, kPa	uncertainty
345.6	.4066	.012198
346.7	.4358	.013074
347.6	.4703	.014109
348.6	.4816	.014448
351.5	.5565	.016695
351.7	.5963	.017889
352.5	.6078	.018234
354.5	.6715	.020145
356.5	.7609	.022827
357.5	.799	.02397
360.7	.9613	.028839
361.2	1.0003	.030009
363.7	1.0531	.031593
366.2	1.2518	.037554
371.2	1.6376	.049128

System: di-tert-butyl oxalate; phases: Liquid, Gas
Property: Molar enthalpy of vaporization or sublimation, kJ/mol (Liquid); method: Derived by Second law
Temperature, K	Molar enthalpy of vaporization or sublimation, kJ/mol	uncertainty
345.6	58.47	2.9235
346.7	58.35	2.9175
347.6	58.26	2.913
348.6	58.15	2.9075
351.5	57.85	2.8925
351.7	57.82	2.891
352.5	57.74	2.887
354.5	57.53	2.8765
356.5	57.32	2.866
357.5	57.21	2.8605
360.7	56.88	2.844
361.2	56.82	2.841
363.7	56.56	2.828
366.2	56.3	2.815
371.2	55.77	2.7885

System: bis(1,1-dimethylethyl) propanedioate; phases: Liquid, Gas
Property: Vapor or sublimation pressure, kPa (Liquid); method: Transpiration method
Temperature, K	Vapor or sublimation pressure, kPa	uncertainty
293.7	.00787	.0002361
295.7	.00952	.0002856
298.6	.0122	.000366
301.7	.0159	.000477
303.6	.0186	.000558
306.6	.023	.00069
308.6	.0274	.000822
310.7	.0337	.001011
312.6	.0399	.001197
315.6	.0494	.001482
317.6	.055	.00165
319.6	.0663	.001989
321.6	.0714	.002142
323.6	.0845	.002535
324.7	.0934	.002802
327.6	.1125	.003375
333.5	.1828	.005484
336.5	.2131	.006393
339.5	.2702	.008106
342.5	.333	.00999
345.5	.3886	.011658

System: bis(1,1-dimethylethyl) propanedioate; phases: Liquid, Gas
Property: Molar enthalpy of vaporization or sublimation, kJ/mol (Liquid); method: Derived by Second law
Temperature, K	Molar enthalpy of vaporization or sublimation, kJ/mol	uncertainty
293.7	66.29	3.3145
295.7	66.07	3.3035
298.6	65.73	3.2865
301.7	65.39	3.2695
303.6	65.17	3.2585
306.6	64.83	3.2415
308.6	64.6	3.23
310.7	64.37	3.2185
312.6	64.14	3.207
315.6	63.8	3.19
317.6	63.58	3.179
319.6	63.35	3.1675
321.6	63.12	3.156
323.6	62.9	3.145
324.7	62.78	3.139
327.6	62.45	3.1225
333.5	61.77	3.0885
336.5	61.44	3.072
339.5	61.1	3.055
342.5	60.76	3.038
345.5	60.41	3.0205

System: di-tert-butyl succinate; phases: Liquid, Gas
Property: Vapor or sublimation pressure, kPa (Liquid); method: Transpiration method
Temperature, K	Vapor or sublimation pressure, kPa	uncertainty
323.2	.0331	.000993
326.2	.0419	.001257
331.2	.0592	.001776
333.2	.0697	.002091
335.2	.0817	.002451
337.2	.0885	.002655
339.2	.1043	.003129
341.2	.1198	.003594
343.2	.1351	.004053
345.2	.1534	.004602
345.2	.1498	.004494
347.2	.1716	.005148
349.2	.2009	.006027
351.2	.2187	.006561
353.2	.2523	.007569
355.2	.2842	.008526

System: di-tert-butyl succinate; phases: Liquid, Gas
Property: Molar enthalpy of vaporization or sublimation, kJ/mol (Liquid); method: Derived by Second law
Temperature, K	Molar enthalpy of vaporization or sublimation, kJ/mol	uncertainty
323.2	65.59	3.2795
326.2	65.22	3.261
331.2	64.61	3.2305
333.2	64.37	3.2185
335.2	64.12	3.206
337.2	63.88	3.194
339.2	63.64	3.182
341.2	63.39	3.1695
343.2	63.15	3.1575
345.2	62.91	3.1455
345.2	62.91	3.1455
347.2	62.66	3.133
349.2	62.42	3.121
351.2	62.18	3.109
353.2	61.93	3.0965
355.2	61.69	3.0845

System: di-tert-butyl glutarate; phases: Liquid, Gas
Property: Vapor or sublimation pressure, kPa (Liquid); method: Transpiration method
Temperature, K	Vapor or sublimation pressure, kPa	uncertainty
295.2	.00104	.0000312
297.2	.0013	.000039
299.2	.00157	.0000471
301.2	.00187	.0000561
303.2	.00231	.0000693
305.2	.00276	.0000828
307.2	.00334	.0001002
309.2	.00393	.0001179
311.2	.00471	.0001413
313.2	.00581	.0001743
315.2	.00674	.0002022
317.2	.00801	.0002403
319.2	.00909	.0002727
321.2	.0104	.000312
323.2	.0123	.000369
325.2	.0152	.000456

System: di-tert-butyl glutarate; phases: Liquid, Gas
Property: Molar enthalpy of vaporization or sublimation, kJ/mol (Liquid); method: Derived by Second law
Temperature, K	Molar enthalpy of vaporization or sublimation, kJ/mol	uncertainty
295.2	72.05	3.6025
297.2	71.79	3.5895
299.2	71.53	3.5765
301.2	71.27	3.5635
303.2	71.01	3.5505
305.2	70.75	3.5375
307.2	70.49	3.5245
309.2	70.23	3.5115
311.2	69.97	3.4985
313.2	69.71	3.4855
315.2	69.45	3.4725
317.2	69.19	3.4595
319.2	68.93	3.4465
321.2	68.67	3.4335
323.2	68.41	3.4205
325.2	68.15	3.4075

System: di-tert-butyl adipate; phases: Liquid, Gas
Property: Vapor or sublimation pressure, kPa (Liquid); method: Transpiration method
Temperature, K	Vapor or sublimation pressure, kPa	uncertainty
322.6	.00711	.0002133
323.4	.00757	.0002271
326.2	.00926	.0002778
329	.0113	.000339
331.8	.01428	.0004284
336	.01907	.0005721
338	.02216	.0006648
341	.02859	.0008577
344	.03272	.0009816
346.9	.04033	.0012099
349.9	.0511	.001533
352.9	.06145	.0018435
355.9	.07647	.0022941
358.9	.09287	.0027861
361.9	.11166	.0033498
362.4	.11369	.0034107
362.5	.11441	.0034323
366.3	.14528	.0043584

System: di-tert-butyl adipate; phases: Liquid, Gas
Property: Molar enthalpy of vaporization or sublimation, kJ/mol (Liquid); method: Derived by Second law
Temperature, K	Molar enthalpy of vaporization or sublimation, kJ/mol	uncertainty
322.6	70.92	3.546
323.4	70.81	3.5405
326.2	70.43	3.5215
329	70.03	3.5015
331.8	69.65	3.4825
336	69.07	3.4535
338	68.79	3.4395
341	68.37	3.4185
344	67.96	3.398
346.9	67.55	3.3775
349.9	67.14	3.357
352.9	66.72	3.336
355.9	66.31	3.3155
358.9	65.89	3.2945
361.9	65.49	3.2745
362.4	65.42	3.271
362.5	65.4	3.27
366.3	64.88	3.244
