Measured thermophysical data. Activity coefficients and partial molar excess enthalpies at infinite dilution for four esters in water
Source: Fluid Phase Equilib., 2010, 10.1016/j.fluid.2010.05.010
Compound 1: dimethyl carbonate, C3H6O3
Compound 2: diethyl carbonate, C5H10O3
Compound 3: ethenyl ethanoate, C4H6O2
Compound 4: propenoic acid, 2-methyl- methyl ester, C5H8O2
Compound 5: water, H2O

System: dimethyl carbonate + water; phases: Liquid
Fixed: Pressure, kPa = 101
Fixed: Mole fraction of dimethyl carbonate = 0
Property: Activity coefficient of dimethyl carbonate (Liquid); method: Inert gas stripping
Temperature, K	Activity coefficient of dimethyl carbonate	uncertainty
273.35	37.6	.03
283.15	43.8	.03
293.15	46.3	.02
298.15	48	.02
303.15	49.3	.02
313.15	50	.02
323.15	50.9	.03
333.15	50.3	.03

System: dimethyl carbonate + water; phases: Liquid
Fixed: Pressure, kPa = 101
Fixed: Mole fraction of dimethyl carbonate = 0
Property: Excess molar enthalpy (molar enthalpy of mixing), kJ/mol (Liquid); method: Flow calorimetry
Temperature, K	Excess molar enthalpy (molar enthalpy of mixing), kJ/mol	uncertainty
288.15	-5.04	.04
298.15	-3.83	.03
308.15	-2.69	.02
318.15	-1.52	.01

System: diethyl carbonate + water; phases: Liquid
Fixed: Pressure, kPa = 101
Fixed: Mole fraction of diethyl carbonate = 0
Property: Activity coefficient of diethyl carbonate (Liquid); method: Inert gas stripping
Temperature, K	Activity coefficient of diethyl carbonate	uncertainty
273.35	246	.05
283.15	299	.03
293.15	353	.02
298.15	374	.02
303.15	394	.02
313.15	408	.02
323.15	394	.03
333.15	388	.03

System: diethyl carbonate + water; phases: Liquid
Fixed: Pressure, kPa = 101
Fixed: Mole fraction of diethyl carbonate = 0
Property: Excess molar enthalpy (molar enthalpy of mixing), kJ/mol (Liquid); method: Flow calorimetry
Temperature, K	Excess molar enthalpy (molar enthalpy of mixing), kJ/mol	uncertainty
288.15	-9.34	.08
298.15	-6.65	.05
308.15	-4.05	.04
318.15	-1.44	.01

System: ethenyl ethanoate + water; phases: Liquid
Fixed: Pressure, kPa = 101
Fixed: Mole fraction of ethenyl ethanoate = 0
Property: Activity coefficient of ethenyl ethanoate (Liquid); method: Inert gas stripping
Temperature, K	Activity coefficient of ethenyl ethanoate	uncertainty
273.35	150	.02
283.15	161	.02
293.15	177	.02
298.15	181	.02
303.15	187	.02
313.15	190	.02
323.15	194	.02
333.15	187	.02

System: ethenyl ethanoate + water; phases: Liquid
Fixed: Pressure, kPa = 101
Fixed: Mole fraction of ethenyl ethanoate = 0
Property: Excess molar enthalpy (molar enthalpy of mixing), kJ/mol (Liquid); method: Flow calorimetry
Temperature, K	Excess molar enthalpy (molar enthalpy of mixing), kJ/mol	uncertainty
288.15	-6.15	.03
293.15	-5.01	.02
298.15	-3.77	.02
303.15	-2.72	.02
308.15	-1.62	.01
313.15	-.593	.01
318.15	.42	.01

System: propenoic acid, 2-methyl- methyl ester + water; phases: Liquid
Fixed: Pressure, kPa = 101
Fixed: Mole fraction of propenoic acid, 2-methyl- methyl ester = 0
Property: Activity coefficient of propenoic acid, 2-methyl- methyl ester (Liquid); method: Inert gas stripping
Temperature, K	Activity coefficient of propenoic acid, 2-methyl- methyl ester	uncertainty
273.35	283	.02
283.15	321	.02
293.15	366	.02
298.15	380	.02
303.15	390	.02
313.15	403	.02
323.15	403	.02
333.15	394	.02

System: propenoic acid, 2-methyl- methyl ester + water; phases: Liquid
Fixed: Pressure, kPa = 101
Fixed: Mole fraction of propenoic acid, 2-methyl- methyl ester = 0
Property: Activity coefficient of propenoic acid, 2-methyl- methyl ester (Liquid); method: Headspace solid-phase microextraction
Temperature, K	Activity coefficient of propenoic acid, 2-methyl- methyl ester	uncertainty
293.15	380	.03
298.15	389	.05
303.15	382	.03

System: propenoic acid, 2-methyl- methyl ester + water; phases: Liquid
Fixed: Pressure, kPa = 101
Fixed: Mole fraction of propenoic acid, 2-methyl- methyl ester = 0
Property: Excess molar enthalpy (molar enthalpy of mixing), kJ/mol (Liquid); method: Flow calorimetry
Temperature, K	Excess molar enthalpy (molar enthalpy of mixing), kJ/mol	uncertainty
288.15	-7.95	.05
298.15	-5.35	.05
303.15	-4.08	.05
308.15	-2.93	.03
318.15	-.585	.01
