Measured thermophysical data. Vapor-liquid equilibria of 2,3,3,3-tetrafluoropropene (HFO-1234yf) + 1,1,1,2,2-pentafluoropropane (HFC-245cb) system
Source: Fluid Phase Equilib., 2016, 10.1016/j.fluid.2016.07.031
Compound 1: HFO-1234yf, C3H2F4, purity 99.9%
Compound 2: 1,1,1,2,2-pentafluoropropane, C3H3F5, purity 99.5%

System: HFO-1234yf; phases: Liquid, Gas
Property: Vapor or sublimation pressure, kPa (Liquid); method: Closed cell (Static) method
Temperature, K	Vapor or sublimation pressure, kPa	uncertainty
283.15	437.4	
293.15	591.8	
303.15	783.8	
313.15	1018.9	

System: 1,1,1,2,2-pentafluoropropane; phases: Liquid, Gas
Property: Vapor or sublimation pressure, kPa (Liquid); method: Closed cell (Static) method
Temperature, K	Vapor or sublimation pressure, kPa	uncertainty
283.15	290.1	
293.15	398.8	
303.15	537.8	
313.15	708.2	

System: HFO-1234yf + 1,1,1,2,2-pentafluoropropane; phases: Liquid, Gas
Property: Vapor or sublimation pressure, kPa (Liquid); method: Closed cell (Static) method
Mole fraction of HFO-1234yf	Temperature, K	Vapor or sublimation pressure, kPa	uncertainty
0	283.15	290.1	
.154	283.15	312.6	
.264	283.15	328.8	
.339	283.15	341.2	
.411	283.15	351.3	
.542	283.15	369.2	
.641	283.15	384.8	
.737	283.15	396.8	
.827	283.15	410.6	
.932	283.15	426.9	
1	283.15	437.4	
0	293.15	398.8	
.154	293.15	430.4	
.266	293.15	447.8	
.338	293.15	461.7	
.412	293.15	475.6	
.542	293.15	503.6	
.641	293.15	519.8	
.74	293.15	541.2	
.83	293.15	558.8	
.932	293.15	577.4	
1	293.15	591.8	
0	303.15	537.8	
.154	303.15	573.1	
.266	303.15	597.8	
.338	303.15	616.2	
.411	303.15	634.4	
.543	303.15	665.9	
.641	303.15	688.9	
.742	303.15	716.8	
.83	303.15	738.9	
.934	303.15	765.4	
1	303.15	783.8	
0	313.15	708.2	
.154	313.15	748.7	
.266	313.15	781.3	
.338	313.15	803.2	
.411	313.15	826.9	
.525	313.15	864.6	
.641	313.15	897.8	
.742	313.15	926.9	
.832	313.15	956.2	
.932	313.15	989.6	
1	313.15	1018.9	

System: HFO-1234yf + 1,1,1,2,2-pentafluoropropane; phases: Gas, Liquid
Property: Mole fraction of HFO-1234yf (Gas); method: Chromatography
Mole fraction of HFO-1234yf	Temperature, K	Mole fraction of HFO-1234yf	uncertainty
0	283.15	0	
.154	283.15	.194	
.264	283.15	.338	
.339	283.15	.424	
.411	283.15	.511	
.542	283.15	.641	
.641	283.15	.736	
.737	283.15	.823	
.827	283.15	.898	
.932	283.15	.961	
1	283.15	1	
0	293.15	0	
.154	293.15	.193	
.266	293.15	.337	
.338	293.15	.418	
.412	293.15	.508	
.542	293.15	.634	
.641	293.15	.733	
.74	293.15	.816	
.83	293.15	.897	
.932	293.15	.961	
1	293.15	1	
0	303.15	0	
.154	303.15	.19	
.266	303.15	.332	
.338	303.15	.413	
.411	303.15	.496	
.543	303.15	.628	
.641	303.15	.731	
.742	303.15	.813	
.83	303.15	.887	
.934	303.15	.96	
1	303.15	1	
0	313.15	0	
.154	313.15	.191	
.266	313.15	.331	
.338	313.15	.405	
.411	313.15	.491	
.525	313.15	.621	
.641	313.15	.722	
.742	313.15	.809	
.832	313.15	.884	
.932	313.15	.958	
1	313.15	1	
