Measured thermophysical data. (p, VE, T) Measurements of mixtures (DBE + alcohol) at temperaturesfrom (293.15 to 353.15) K and at pressures up to 140 MPa
Source: Fluid Phase Equilib., 2014, 10.1016/j.fluid.2013.11.031
Compound 1: dibutyl ether, C8H18O, purity 99.3%
Compound 2: 1-propanol, C3H8O, purity 99.9%
Compound 3: 2-propanol, C3H8O, purity 99.9%
Compound 4: 1-hexanol, C6H14O, purity 99.9%

System: 1-propanol; phases: Liquid
Property: Mass density, kg/m3 (Liquid); method: Vibrating tube method
Temperature, K	Pressure, kPa	Mass density, kg/m3	uncertainty
293.15	100	803.8	.4019
293.15	10000	811.3	.40565
293.15	20000	818.1	.40905
293.15	30000	824.4	.4122
293.15	40000	830	.415
293.15	50000	835.6	.4178
293.15	60000	841	.4205
293.15	70000	845.9	.42295
293.15	80000	850.7	.42535
293.15	90000	855.2	.4276
293.15	100000	859.6	.4298
293.15	110000	863.7	.43185
293.15	120000	867.8	.4339
293.15	130000	871.6	.4358
293.15	140000	875.3	.43765
313.15	100	787.1	.39355
313.15	10000	795.5	.39775
313.15	20000	803	.4015
313.15	30000	810	.405
313.15	40000	816.4	.4082
313.15	50000	822.3	.41115
313.15	60000	827.9	.41395
313.15	70000	833.2	.4166
313.15	80000	838.3	.41915
313.15	90000	843	.4215
313.15	100000	847.9	.42395
313.15	110000	852.3	.42615
313.15	120000	856.6	.4283
313.15	130000	860.7	.43035
313.15	140000	864.6	.4323
333.15	100	769.9	.38495
333.15	10000	780	.39
333.15	20000	788.3	.39415
333.15	30000	795.7	.39785
333.15	40000	802.5	.40125
333.15	50000	809	.4045
333.15	60000	815	.4075
333.15	70000	820.6	.4103
333.15	80000	826.2	.4131
333.15	90000	831.2	.4156
333.15	100000	836.3	.41815
333.15	110000	840.9	.42045
333.15	120000	845.3	.42265
333.15	130000	849.6	.4248
333.15	140000	853.6	.4268
353.15	100	752	.376
353.15	10000	762.5	.38125
353.15	20000	771.8	.3859
353.15	30000	780.2	.3901
353.15	40000	787.9	.39395
353.15	50000	795	.3975
353.15	60000	801.4	.4007
353.15	70000	807.7	.40385
353.15	80000	813.4	.4067
353.15	90000	818.7	.40935
353.15	100000	823.8	.4119
353.15	110000	828.8	.4144
353.15	120000	833.5	.41675
353.15	130000	837.9	.41895
353.15	140000	842.1	.42105

System: 1-propanol + dibutyl ether; phases: Liquid
Property: Mass density, kg/m3 (Liquid); method: Vibrating tube method
Temperature, K	Pressure, kPa	Mole fraction of dibutyl ether	Mass density, kg/m3	uncertainty
293.15	100	.15	794.5	.39725
293.15	10000	.15	802.3	.40115
293.15	20000	.15	809.2	.4046
293.15	30000	.15	815.7	.40785
293.15	40000	.15	821.7	.41085
293.15	50000	.15	827.4	.4137
293.15	60000	.15	832.7	.41635
293.15	70000	.15	837.8	.4189
293.15	80000	.15	842.6	.4213
293.15	90000	.15	847.2	.4236
293.15	100000	.15	851.7	.42585
293.15	110000	.15	855.9	.42795
293.15	120000	.15	859.9	.42995
293.15	130000	.15	863.8	.4319
293.15	140000	.15	867.6	.4338
313.15	100	.15	777.8	.3889
313.15	10000	.15	786.5	.39325
313.15	20000	.15	794.2	.3971
313.15	30000	.15	801.4	.4007
313.15	40000	.15	807.9	.40395
313.15	50000	.15	814	.407
313.15	60000	.15	819.7	.40985
313.15	70000	.15	825.1	.41255
313.15	80000	.15	830.2	.4151
313.15	90000	.15	835	.4175
313.15	100000	.15	839.9	.41995
313.15	110000	.15	844.3	.42215
313.15	120000	.15	848.7	.42435
313.15	130000	.15	852.8	.4264
313.15	140000	.15	856.8	.4284
333.15	100	.15	760.7	.38035
333.15	10000	.15	770.5	.38525
333.15	20000	.15	779.1	.38955
333.15	30000	.15	786.6	.3933
333.15	40000	.15	793.7	.39685
333.15	50000	.15	800.3	.40015
333.15	60000	.15	806.4	.4032
333.15	70000	.15	812.2	.4061
333.15	80000	.15	817.8	.4089
333.15	90000	.15	823	.4115
333.15	100000	.15	828.1	.41405
333.15	110000	.15	832.8	.4164
333.15	120000	.15	837.3	.41865
333.15	130000	.15	841.5	.42075
333.15	140000	.15	845.6	.4228
353.15	100	.15	741.7	.37085
353.15	10000	.15	752.6	.3763
353.15	20000	.15	762.4	.3812
353.15	30000	.15	771.1	.38555
353.15	40000	.15	779	.3895
353.15	50000	.15	786.3	.39315
353.15	60000	.15	792.9	.39645
353.15	70000	.15	799.3	.39965
353.15	80000	.15	805	.4025
353.15	90000	.15	810.5	.40525
353.15	100000	.15	815.6	.4078
353.15	110000	.15	820.7	.41035
353.15	120000	.15	825.4	.4127
353.15	130000	.15	829.9	.41495
353.15	140000	.15	834.3	.41715
293.15	100	.325	786.5	.39325
293.15	10000	.325	794.3	.39715
293.15	20000	.325	801.5	.40075
293.15	30000	.325	808.1	.40405
293.15	40000	.325	814.3	.40715
293.15	50000	.325	820	.41
293.15	60000	.325	825.3	.41265
293.15	70000	.325	830.5	.41525
293.15	80000	.325	835.4	.4177
293.15	90000	.325	840	.42
293.15	100000	.325	844.4	.4222
293.15	110000	.325	848.7	.42435
293.15	120000	.325	852.8	.4264
293.15	130000	.325	856.7	.42835
293.15	140000	.325	860.5	.43025
313.15	100	.325	769.4	.3847
313.15	10000	.325	778.1	.38905
313.15	20000	.325	786.2	.3931
313.15	30000	.325	793.5	.39675
313.15	40000	.325	800.1	.40005
313.15	50000	.325	806.3	.40315
313.15	60000	.325	812.1	.40605
313.15	70000	.325	817.6	.4088
313.15	80000	.325	822.8	.4114
313.15	90000	.325	827.7	.41385
313.15	100000	.325	832.7	.41635
313.15	110000	.325	837.2	.4186
313.15	120000	.325	841.4	.4207
313.15	130000	.325	845.7	.42285
313.15	140000	.325	849.7	.42485
333.15	100	.325	751.7	.37585
333.15	10000	.325	761.7	.38085
333.15	20000	.325	770.7	.38535
333.15	30000	.325	778.5	.38925
333.15	40000	.325	785.7	.39285
333.15	50000	.325	792.4	.3962
333.15	60000	.325	798.7	.39935
333.15	70000	.325	804.6	.4023
333.15	80000	.325	810.3	.40515
333.15	90000	.325	815.6	.4078
333.15	100000	.325	820.7	.41035
333.15	110000	.325	825.5	.41275
333.15	120000	.325	830.1	.41505
333.15	130000	.325	834.4	.4172
333.15	140000	.325	838.5	.41925
353.15	100	.325	732.4	.3662
353.15	10000	.325	743.8	.3719
353.15	20000	.325	753.9	.37695
353.15	30000	.325	762.9	.38145
353.15	40000	.325	771.1	.38555
353.15	50000	.325	778.5	.38925
353.15	60000	.325	785.2	.3926
353.15	70000	.325	791.7	.39585
353.15	80000	.325	797.6	.3988
353.15	90000	.325	803.1	.40155
353.15	100000	.325	808.3	.40415
353.15	110000	.325	813.4	.4067
353.15	120000	.325	818.2	.4091
353.15	130000	.325	822.8	.4114
353.15	140000	.325	827.2	.4136
293.15	100	.5	780.2	.3901
293.15	10000	.5	788.3	.39415
293.15	20000	.5	795.7	.39785
293.15	30000	.5	802.4	.4012
293.15	40000	.5	808.7	.40435
293.15	50000	.5	814.5	.40725
293.15	60000	.5	820	.41
293.15	70000	.5	825.2	.4126
293.15	80000	.5	830.2	.4151
293.15	90000	.5	834.8	.4174
293.15	100000	.5	839.2	.4196
293.15	110000	.5	843.5	.42175
293.15	120000	.5	847.6	.4238
293.15	130000	.5	851.5	.42575
293.15	140000	.5	855.4	.4277
313.15	100	.5	762.9	.38145
313.15	10000	.5	771.9	.38595
313.15	20000	.5	780.1	.39005
313.15	30000	.5	787.5	.39375
313.15	40000	.5	794.3	.39715
313.15	50000	.5	800.6	.4003
313.15	60000	.5	806.5	.40325
313.15	70000	.5	812.1	.40605
313.15	80000	.5	817.3	.40865
313.15	90000	.5	822.3	.41115
313.15	100000	.5	827.2	.4136
313.15	110000	.5	831.8	.4159
313.15	120000	.5	836.3	.41815
313.15	130000	.5	840.4	.4202
313.15	140000	.5	844.4	.4222
333.15	100	.5	744.9	.37245
333.15	10000	.5	755.3	.37765
333.15	20000	.5	764.5	.38225
333.15	30000	.5	772.5	.38625
333.15	40000	.5	779.8	.3899
333.15	50000	.5	786.7	.39335
333.15	60000	.5	793.1	.39655
333.15	70000	.5	799.1	.39955
333.15	80000	.5	804.9	.40245
333.15	90000	.5	810.2	.4051
333.15	100000	.5	815.5	.40775
333.15	110000	.5	820.3	.41015
333.15	120000	.5	825	.4125
333.15	130000	.5	829.3	.41465
333.15	140000	.5	833.5	.41675
353.15	100	.5	725.7	.36285
353.15	10000	.5	737.6	.3688
353.15	20000	.5	748	.374
353.15	30000	.5	757.2	.3786
353.15	40000	.5	765.4	.3827
353.15	50000	.5	773.1	.38655
353.15	60000	.5	779.9	.38995
353.15	70000	.5	786.5	.39325
353.15	80000	.5	792.4	.3962
353.15	90000	.5	798	.399
353.15	100000	.5	803.3	.40165
353.15	110000	.5	808.4	.4042
353.15	120000	.5	813.2	.4066
353.15	130000	.5	817.8	.4089
353.15	140000	.5	822.3	.41115
293.15	100	.675	775.5	.38775
293.15	10000	.675	783.6	.3918
293.15	20000	.675	790.9	.39545
293.15	30000	.675	797.7	.39885
293.15	40000	.675	804.1	.40205
293.15	50000	.675	810	.405
293.15	60000	.675	815.5	.40775
293.15	70000	.675	820.7	.41035
293.15	80000	.675	825.7	.41285
293.15	90000	.675	830.4	.4152
293.15	100000	.675	834.8	.4174
293.15	110000	.675	839.2	.4196
293.15	120000	.675	843.3	.42165
293.15	130000	.675	847.3	.42365
293.15	140000	.675	851.2	.4256
313.15	100	.675	757.9	.37895
313.15	10000	.675	767.2	.3836
313.15	20000	.675	775.5	.38775
313.15	30000	.675	783	.3915
313.15	40000	.675	789.8	.3949
313.15	50000	.675	796.1	.39805
313.15	60000	.675	802	.401
313.15	70000	.675	807.6	.4038
313.15	80000	.675	812.9	.40645
313.15	90000	.675	817.8	.4089
313.15	100000	.675	822.8	.4114
313.15	110000	.675	827.6	.4138
313.15	120000	.675	832.1	.41605
313.15	130000	.675	836.3	.41815
313.15	140000	.675	840.4	.4202
333.15	100	.675	740.2	.3701
333.15	10000	.675	750.7	.37535
333.15	20000	.675	760	.38
333.15	30000	.675	768.1	.38405
333.15	40000	.675	775.5	.38775
333.15	50000	.675	782.5	.39125
333.15	60000	.675	788.9	.39445
333.15	70000	.675	794.9	.39745
333.15	80000	.675	800.8	.4004
333.15	90000	.675	806.1	.40305
333.15	100000	.675	811.5	.40575
333.15	110000	.675	816.2	.4081
333.15	120000	.675	820.9	.41045
333.15	130000	.675	825.2	.4126
333.15	140000	.675	829.4	.4147
353.15	100	.675	720.9	.36045
353.15	10000	.675	732.8	.3664
353.15	20000	.675	743.4	.3717
353.15	30000	.675	752.8	.3764
353.15	40000	.675	761.1	.38055
353.15	50000	.675	768.7	.38435
353.15	60000	.675	775.7	.38785
353.15	70000	.675	782.3	.39115
353.15	80000	.675	788.2	.3941
353.15	90000	.675	793.9	.39695
353.15	100000	.675	799.2	.3996
353.15	110000	.675	804.4	.4022
353.15	120000	.675	809.3	.40465
353.15	130000	.675	813.9	.40695
353.15	140000	.675	818.3	.40915
293.15	100	.85	771.5	.38575
293.15	10000	.85	779.7	.38985
293.15	20000	.85	787.2	.3936
293.15	30000	.85	794	.397
293.15	40000	.85	800.4	.4002
293.15	50000	.85	806.4	.4032
293.15	60000	.85	811.9	.40595
293.15	70000	.85	817.2	.4086
293.15	80000	.85	822.1	.41105
293.15	90000	.85	826.9	.41345
293.15	100000	.85	831.5	.41575
293.15	110000	.85	835.8	.4179
293.15	120000	.85	840	.42
293.15	130000	.85	844	.422
293.15	140000	.85	847.9	.42395
313.15	100	.85	753.7	.37685
313.15	10000	.85	763	.3815
313.15	20000	.85	771.4	.3857
313.15	30000	.85	779	.3895
313.15	40000	.85	786	.393
313.15	50000	.85	792.4	.3962
313.15	60000	.85	798.4	.3992
313.15	70000	.85	804	.402
313.15	80000	.85	809.4	.4047
313.15	90000	.85	814.4	.4072
313.15	100000	.85	819.4	.4097
313.15	110000	.85	824.1	.41205
313.15	120000	.85	828.6	.4143
313.15	130000	.85	832.8	.4164
313.15	140000	.85	836.9	.41845
333.15	100	.85	735.9	.36795
333.15	10000	.85	746.6	.3733
333.15	20000	.85	756	.378
333.15	30000	.85	764.2	.3821
333.15	40000	.85	771.8	.3859
333.15	50000	.85	778.8	.3894
333.15	60000	.85	785.2	.3926
333.15	70000	.85	791.3	.39565
333.15	80000	.85	797.2	.3986
333.15	90000	.85	802.5	.40125
333.15	100000	.85	807.9	.40395
333.15	110000	.85	812.7	.40635
333.15	120000	.85	817.4	.4087
333.15	130000	.85	821.7	.41085
333.15	140000	.85	825.9	.41295
353.15	100	.85	717.4	.3587
353.15	10000	.85	729.4	.3647
353.15	20000	.85	740	.37
353.15	30000	.85	749.4	.3747
353.15	40000	.85	757.8	.3789
353.15	50000	.85	765.6	.3828
353.15	60000	.85	772.5	.38625
353.15	70000	.85	779.1	.38955
353.15	80000	.85	785.1	.39255
353.15	90000	.85	790.8	.3954
353.15	100000	.85	796.1	.39805
353.15	110000	.85	801.4	.4007
353.15	120000	.85	806.3	.40315
353.15	130000	.85	810.9	.40545
353.15	140000	.85	815.4	.4077

System: 1-hexanol + dibutyl ether; phases: Liquid
Property: Mass density, kg/m3 (Liquid); method: Vibrating tube method
Temperature, K	Pressure, kPa	Mole fraction of dibutyl ether	Mass density, kg/m3	uncertainty
293.15	100	.1503	810.2	.4051
293.15	10000	.1503	816.9	.40845
293.15	20000	.1503	823	.4115
293.15	30000	.1503	828.7	.41435
293.15	40000	.1503	834.2	.4171
293.15	50000	.1503	839.2	.4196
293.15	60000	.1503	843.9	.42195
293.15	70000	.1503	848.5	.42425
293.15	80000	.1503	852.9	.42645
293.15	90000	.1503	857	.4285
293.15	100000	.1503	861.3	.43065
293.15	110000	.1503	865	.4325
293.15	120000	.1503	868.8	.4344
293.15	130000	.1503	872.4	.4362
293.15	140000	.1503	875.9	.43795
313.15	100	.1503	795.1	.39755
313.15	10000	.1503	802.3	.40115
313.15	20000	.1503	809	.4045
313.15	30000	.1503	815.3	.40765
313.15	40000	.1503	821	.4105
313.15	50000	.1503	826.6	.4133
313.15	60000	.1503	831.8	.4159
313.15	70000	.1503	836.8	.4184
313.15	80000	.1503	841.4	.4207
313.15	90000	.1503	845.9	.42295
313.15	100000	.1503	850.1	.42505
313.15	110000	.1503	854.2	.4271
313.15	120000	.1503	858.2	.4291
313.15	130000	.1503	862	.431
313.15	140000	.1503	865.7	.43285
333.15	100	.1503	780.1	.39005
333.15	10000	.1503	788.1	.39405
333.15	20000	.1503	795.6	.3978
333.15	30000	.1503	802.4	.4012
333.15	40000	.1503	808.7	.40435
333.15	50000	.1503	814.6	.4073
333.15	60000	.1503	820.1	.41005
333.15	70000	.1503	825.3	.41265
333.15	80000	.1503	830.3	.41515
333.15	90000	.1503	835.3	.41765
333.15	100000	.1503	839.8	.4199
333.15	110000	.1503	843.9	.42195
333.15	120000	.1503	847.6	.4238
333.15	130000	.1503	851.8	.4259
333.15	140000	.1503	855.6	.4278
353.15	100	.1503	763.7	.38185
353.15	10000	.1503	772.7	.38635
353.15	20000	.1503	780.9	.39045
353.15	30000	.1503	788.4	.3942
353.15	40000	.1503	795.3	.39765
353.15	50000	.1503	801.8	.4009
353.15	60000	.1503	807.6	.4038
353.15	70000	.1503	813.2	.4066
353.15	80000	.1503	818.6	.4093
353.15	90000	.1503	823.6	.4118
353.15	100000	.1503	828.3	.41415
353.15	110000	.1503	832.8	.4164
353.15	120000	.1503	837.3	.41865
353.15	130000	.1503	841.4	.4207
353.15	140000	.1503	845.5	.42275
293.15	100	.3248	800.4	.4002
293.15	10000	.3248	807.4	.4037
293.15	20000	.3248	813.9	.40695
293.15	30000	.3248	819.8	.4099
293.15	40000	.3248	825.5	.41275
293.15	50000	.3248	830.8	.4154
293.15	60000	.3248	835.7	.41785
293.15	70000	.3248	840.5	.42025
293.15	80000	.3248	845	.4225
293.15	90000	.3248	849.2	.4246
293.15	100000	.3248	853.7	.42685
293.15	110000	.3248	857.5	.42875
293.15	120000	.3248	861.3	.43065
293.15	130000	.3248	865	.4325
293.15	140000	.3248	868.6	.4343
313.15	100	.3248	785.1	.39255
313.15	10000	.3248	792.7	.39635
313.15	20000	.3248	799.7	.39985
313.15	30000	.3248	806.4	.4032
313.15	40000	.3248	812.4	.4062
313.15	50000	.3248	818.1	.40905
313.15	60000	.3248	823.5	.41175
313.15	70000	.3248	828.8	.4144
313.15	80000	.3248	833.6	.4168
313.15	90000	.3248	838.2	.4191
313.15	100000	.3248	842.5	.42125
313.15	110000	.3248	846.8	.4234
313.15	120000	.3248	850.9	.42545
313.15	130000	.3248	854.8	.4274
313.15	140000	.3248	858.6	.4293
333.15	100	.3248	769.2	.3846
333.15	10000	.3248	777.7	.38885
333.15	20000	.3248	785.6	.3928
333.15	30000	.3248	792.7	.39635
333.15	40000	.3248	799.4	.3997
333.15	50000	.3248	805.5	.40275
333.15	60000	.3248	811.3	.40565
333.15	70000	.3248	816.6	.4083
333.15	80000	.3248	821.9	.41095
333.15	90000	.3248	827	.4135
333.15	100000	.3248	831.6	.4158
333.15	110000	.3248	835.9	.41795
333.15	120000	.3248	839.7	.41985
333.15	130000	.3248	844	.422
333.15	140000	.3248	847.9	.42395
353.15	100	.3248	752.3	.37615
353.15	10000	.3248	761.9	.38095
353.15	20000	.3248	770.6	.3853
353.15	30000	.3248	778.6	.3893
353.15	40000	.3248	785.8	.3929
353.15	50000	.3248	792.5	.39625
353.15	60000	.3248	798.7	.39935
353.15	70000	.3248	804.5	.40225
353.15	80000	.3248	810.1	.40505
353.15	90000	.3248	815.3	.40765
353.15	100000	.3248	820.1	.41005
353.15	110000	.3248	824.9	.41245
353.15	120000	.3248	829.4	.4147
353.15	130000	.3248	833.5	.41675
353.15	140000	.3248	837.7	.41885
293.15	100	.4999	791.5	.39575
293.15	10000	.4999	798.8	.3994
293.15	20000	.4999	805.6	.4028
293.15	30000	.4999	811.7	.40585
293.15	40000	.4999	817.6	.4088
293.15	50000	.4999	823	.4115
293.15	60000	.4999	828.1	.41405
293.15	70000	.4999	833.1	.41655
293.15	80000	.4999	837.8	.4189
293.15	90000	.4999	842.1	.42105
293.15	100000	.4999	846.6	.4233
293.15	110000	.4999	850.6	.4253
293.15	120000	.4999	854.5	.42725
293.15	130000	.4999	858.3	.42915
293.15	140000	.4999	862	.431
313.15	100	.4999	775.3	.38765
313.15	10000	.4999	783.3	.39165
313.15	20000	.4999	790.7	.39535
313.15	30000	.4999	797.7	.39885
313.15	40000	.4999	804	.402
313.15	50000	.4999	810	.405
313.15	60000	.4999	815.6	.4078
313.15	70000	.4999	821	.4105
313.15	80000	.4999	825.9	.41295
313.15	90000	.4999	830.7	.41535
313.15	100000	.4999	835.1	.41755
313.15	110000	.4999	839.5	.41975
313.15	120000	.4999	843.7	.42185
313.15	130000	.4999	847.7	.42385
313.15	140000	.4999	851.7	.42585
333.15	100	.4999	759.8	.3799
333.15	10000	.4999	768.6	.3843
333.15	20000	.4999	776.7	.38835
333.15	30000	.4999	784.1	.39205
333.15	40000	.4999	790.9	.39545
333.15	50000	.4999	797.3	.39865
333.15	60000	.4999	803.2	.4016
333.15	70000	.4999	808.7	.40435
333.15	80000	.4999	814.1	.40705
333.15	90000	.4999	819.4	.4097
333.15	100000	.4999	824.1	.41205
333.15	110000	.4999	828.6	.4143
333.15	120000	.4999	832.5	.41625
333.15	130000	.4999	836.9	.41845
333.15	140000	.4999	840.9	.42045
353.15	100	.4999	742.7	.37135
353.15	10000	.4999	752.7	.37635
353.15	20000	.4999	761.7	.38085
353.15	30000	.4999	769.9	.38495
353.15	40000	.4999	777.3	.38865
353.15	50000	.4999	784.2	.3921
353.15	60000	.4999	790.5	.39525
353.15	70000	.4999	796.5	.39825
353.15	80000	.4999	802.2	.4011
353.15	90000	.4999	807.5	.40375
353.15	100000	.4999	812.6	.4063
353.15	110000	.4999	817.5	.40875
353.15	120000	.4999	822.2	.4111
353.15	130000	.4999	826.3	.41315
353.15	140000	.4999	830.5	.41525
293.15	100	.6761	783.1	.39155
293.15	10000	.6761	790.8	.3954
293.15	20000	.6761	797.9	.39895
293.15	30000	.6761	804.3	.40215
293.15	40000	.6761	810.4	.4052
293.15	50000	.6761	816	.408
293.15	60000	.6761	821.2	.4106
293.15	70000	.6761	826.3	.41315
293.15	80000	.6761	830.8	.4154
293.15	90000	.6761	835.3	.41765
293.15	100000	.6761	839.9	.41995
293.15	110000	.6761	844	.422
293.15	120000	.6761	848	.424
293.15	130000	.6761	851.9	.42595
293.15	140000	.6761	855.7	.42785
313.15	100	.6761	766.3	.38315
313.15	10000	.6761	774.7	.38735
313.15	20000	.6761	782.5	.39125
313.15	30000	.6761	789.7	.39485
313.15	40000	.6761	796.2	.3981
313.15	50000	.6761	802.4	.4012
313.15	60000	.6761	808.2	.4041
313.15	70000	.6761	813.7	.40685
313.15	80000	.6761	818.8	.4094
313.15	90000	.6761	823.7	.41185
313.15	100000	.6761	828.2	.4141
313.15	110000	.6761	832.8	.4164
313.15	120000	.6761	837.1	.41855
313.15	130000	.6761	841.2	.4206
313.15	140000	.6761	845.2	.4226
333.15	100	.6761	753	.3765
333.15	10000	.6761	762.1	.38105
333.15	20000	.6761	770.4	.3852
333.15	30000	.6761	777.8	.3889
333.15	40000	.6761	784.8	.3924
333.15	50000	.6761	791.2	.3956
333.15	60000	.6761	797.2	.3986
333.15	70000	.6761	802.8	.4014
333.15	80000	.6761	808.2	.4041
333.15	90000	.6761	813.5	.40675
333.15	100000	.6761	818.1	.40905
333.15	110000	.6761	822.5	.41125
333.15	120000	.6761	826.4	.4132
333.15	130000	.6761	830.8	.4154
333.15	140000	.6761	834.9	.41745
353.15	100	.6761	735.5	.36775
353.15	10000	.6761	745.7	.37285
353.15	20000	.6761	755	.3775
353.15	30000	.6761	763.3	.38165
353.15	40000	.6761	770.9	.38545
353.15	50000	.6761	777.9	.38895
353.15	60000	.6761	784.3	.39215
353.15	70000	.6761	790.3	.39515
353.15	80000	.6761	796.1	.39805
353.15	90000	.6761	801.5	.40075
353.15	100000	.6761	806.5	.40325
353.15	110000	.6761	811.3	.40565
353.15	120000	.6761	816	.408
353.15	130000	.6761	820.4	.4102
353.15	140000	.6761	824.7	.41235
293.15	100	.8431	775.5	.38775
293.15	10000	.8431	783.4	.3917
293.15	20000	.8431	790.7	.39535
293.15	30000	.8431	797.4	.3987
293.15	40000	.8431	803.7	.40185
293.15	50000	.8431	809.5	.40475
293.15	60000	.8431	814.9	.40745
293.15	70000	.8431	820	.41
293.15	80000	.8431	824.9	.41245
293.15	90000	.8431	829.5	.41475
293.15	100000	.8431	834.2	.4171
293.15	110000	.8431	838.4	.4192
293.15	120000	.8431	842.5	.42125
293.15	130000	.8431	846.4	.4232
293.15	140000	.8431	850.3	.42515
313.15	100	.8431	758.4	.3792
313.15	10000	.8431	767.3	.38365
313.15	20000	.8431	775.3	.38765
313.15	30000	.8431	782.8	.3914
313.15	40000	.8431	789.5	.39475
313.15	50000	.8431	795.9	.39795
313.15	60000	.8431	801.8	.4009
313.15	70000	.8431	807.5	.40375
313.15	80000	.8431	812.7	.40635
313.15	90000	.8431	817.7	.40885
313.15	100000	.8431	822.4	.4112
313.15	110000	.8431	827	.4135
313.15	120000	.8431	831.4	.4157
313.15	130000	.8431	835.5	.41775
313.15	140000	.8431	839.6	.4198
333.15	100	.8431	742	.371
333.15	10000	.8431	751.8	.3759
333.15	20000	.8431	760.7	.38035
333.15	30000	.8431	768.7	.38435
333.15	40000	.8431	776.1	.38805
333.15	50000	.8431	782.9	.39145
333.15	60000	.8431	789.2	.3946
333.15	70000	.8431	795.1	.39755
333.15	80000	.8431	800.8	.4004
333.15	90000	.8431	806.4	.4032
333.15	100000	.8431	811.3	.40565
333.15	110000	.8431	816	.408
333.15	120000	.8431	820	.41
333.15	130000	.8431	824.7	.41235
333.15	140000	.8431	828.9	.41445
353.15	100	.8431	724.8	.3624
353.15	10000	.8431	735.9	.36795
353.15	20000	.8431	745.8	.3729
353.15	30000	.8431	754.6	.3773
353.15	40000	.8431	762.5	.38125
353.15	50000	.8431	769.9	.38495
353.15	60000	.8431	776.6	.3883
353.15	70000	.8431	782.8	.3914
353.15	80000	.8431	788.8	.3944
353.15	90000	.8431	794.4	.3972
353.15	100000	.8431	799.6	.3998
353.15	110000	.8431	804.7	.40235
353.15	120000	.8431	809.5	.40475
353.15	130000	.8431	814.1	.40705
353.15	140000	.8431	818.6	.4093

System: 2-propanol + dibutyl ether; phases: Liquid
Property: Mass density, kg/m3 (Liquid); method: Vibrating tube method
Temperature, K	Pressure, kPa	Mole fraction of dibutyl ether	Mass density, kg/m3	uncertainty
293.15	100	.1499	780	.39
293.15	10000	.1499	788.3	.39415
293.15	20000	.1499	795.9	.39795
293.15	30000	.1499	802.7	.40135
293.15	40000	.1499	809	.4045
293.15	50000	.1499	814.9	.40745
293.15	60000	.1499	820.4	.4102
293.15	70000	.1499	825.7	.41285
293.15	80000	.1499	830.7	.41535
293.15	90000	.1499	835.4	.4177
293.15	100000	.1499	840.2	.4201
293.15	110000	.1499	844.3	.42215
293.15	120000	.1499	848.5	.42425
293.15	130000	.1499	852.5	.42625
293.15	140000	.1499	856.4	.4282
313.15	100	.1499	762.2	.3811
313.15	10000	.1499	771.5	.38575
313.15	20000	.1499	779.8	.3899
313.15	30000	.1499	787.5	.39375
313.15	40000	.1499	794.4	.3972
313.15	50000	.1499	800.9	.40045
313.15	60000	.1499	806.9	.40345
313.15	70000	.1499	812.7	.40635
313.15	80000	.1499	818	.409
313.15	90000	.1499	823.1	.41155
313.15	100000	.1499	827.8	.4139
313.15	110000	.1499	832.5	.41625
313.15	120000	.1499	837	.4185
313.15	130000	.1499	841.2	.4206
313.15	140000	.1499	845.4	.4227
333.15	100	.1499	743.4	.3717
333.15	10000	.1499	754.1	.37705
333.15	20000	.1499	763.5	.38175
333.15	30000	.1499	771.9	.38595
333.15	40000	.1499	779.6	.3898
333.15	50000	.1499	786.7	.39335
333.15	60000	.1499	793.2	.3966
333.15	70000	.1499	799.2	.3996
333.15	80000	.1499	805.1	.40255
333.15	90000	.1499	810.8	.4054
333.15	100000	.1499	816	.408
333.15	110000	.1499	820.8	.4104
333.15	120000	.1499	824.9	.41245
333.15	130000	.1499	829.6	.4148
333.15	140000	.1499	833.9	.41695
353.15	100	.1499	722.4	.3612
353.15	10000	.1499	734.9	.36745
353.15	20000	.1499	745.7	.37285
353.15	30000	.1499	755.3	.37765
353.15	40000	.1499	763.8	.3819
353.15	50000	.1499	771.6	.3858
353.15	60000	.1499	778.6	.3893
353.15	70000	.1499	785.3	.39265
353.15	80000	.1499	791.6	.3958
353.15	90000	.1499	797.4	.3987
353.15	100000	.1499	802.8	.4014
353.15	110000	.1499	808	.404
353.15	120000	.1499	813	.4065
353.15	130000	.1499	817.8	.4089
353.15	140000	.1499	822.3	.41115
293.15	100	.3251	775.7	.38785
293.15	10000	.3251	784.1	.39205
293.15	20000	.3251	791.7	.39585
293.15	30000	.3251	798.5	.39925
293.15	40000	.3251	804.8	.4024
293.15	50000	.3251	810.7	.40535
293.15	60000	.3251	816.3	.40815
293.15	70000	.3251	821.6	.4108
293.15	80000	.3251	826.6	.4133
293.15	90000	.3251	831.3	.41565
293.15	100000	.3251	836.1	.41805
293.15	110000	.3251	840.3	.42015
293.15	120000	.3251	844.5	.42225
293.15	130000	.3251	848.5	.42425
293.15	140000	.3251	852.4	.4262
313.15	100	.3251	757.8	.3789
313.15	10000	.3251	767.1	.38355
313.15	20000	.3251	775.6	.3878
313.15	30000	.3251	783.3	.39165
313.15	40000	.3251	790.3	.39515
313.15	50000	.3251	796.8	.3984
313.15	60000	.3251	802.9	.40145
313.15	70000	.3251	808.8	.4044
313.15	80000	.3251	814.1	.40705
313.15	90000	.3251	819.3	.40965
313.15	100000	.3251	824	.412
313.15	110000	.3251	828.7	.41435
313.15	120000	.3251	833.2	.4166
313.15	130000	.3251	837.4	.4187
313.15	140000	.3251	841.6	.4208
333.15	100	.3251	739.2	.3696
333.15	10000	.3251	749.9	.37495
333.15	20000	.3251	759.4	.3797
333.15	30000	.3251	768	.384
333.15	40000	.3251	775.7	.38785
333.15	50000	.3251	782.8	.3914
333.15	60000	.3251	789.4	.3947
333.15	70000	.3251	795.5	.39775
333.15	80000	.3251	801.4	.4007
333.15	90000	.3251	807.1	.40355
333.15	100000	.3251	812.2	.4061
333.15	110000	.3251	817	.4085
333.15	120000	.3251	821.2	.4106
333.15	130000	.3251	826	.413
333.15	140000	.3251	830.2	.4151
353.15	100	.3251	718	.359
353.15	10000	.3251	730.6	.3653
353.15	20000	.3251	741.5	.37075
353.15	30000	.3251	751.1	.37555
353.15	40000	.3251	759.7	.37985
353.15	50000	.3251	767.5	.38375
353.15	60000	.3251	774.6	.3873
353.15	70000	.3251	781.3	.39065
353.15	80000	.3251	787.6	.3938
353.15	90000	.3251	793.5	.39675
353.15	100000	.3251	798.9	.39945
353.15	110000	.3251	804.1	.40205
353.15	120000	.3251	809.1	.40455
353.15	130000	.3251	813.9	.40695
353.15	140000	.3251	818.5	.40925
293.15	100	.508	772.8	.3864
293.15	10000	.508	781.2	.3906
293.15	20000	.508	788.8	.3944
293.15	30000	.508	795.7	.39785
293.15	40000	.508	802.1	.40105
293.15	50000	.508	808.1	.40405
293.15	60000	.508	813.6	.4068
293.15	70000	.508	818.9	.40945
293.15	80000	.508	824	.412
293.15	90000	.508	828.7	.41435
293.15	100000	.508	833.5	.41675
293.15	110000	.508	837.7	.41885
293.15	120000	.508	841.9	.42095
293.15	130000	.508	845.9	.42295
293.15	140000	.508	849.9	.42495
313.15	100	.508	754.8	.3774
313.15	10000	.508	764.1	.38205
313.15	20000	.508	772.6	.3863
313.15	30000	.508	780.4	.3902
313.15	40000	.508	787.3	.39365
313.15	50000	.508	794	.397
313.15	60000	.508	800.1	.40005
313.15	70000	.508	805.9	.40295
313.15	80000	.508	811.3	.40565
313.15	90000	.508	816.5	.40825
313.15	100000	.508	821.2	.4106
313.15	110000	.508	825.9	.41295
313.15	120000	.508	830.4	.4152
313.15	130000	.508	834.7	.41735
313.15	140000	.508	838.9	.41945
333.15	100	.508	736.2	.3681
333.15	10000	.508	747	.3735
333.15	20000	.508	756.6	.3783
333.15	30000	.508	765.1	.38255
333.15	40000	.508	772.8	.3864
333.15	50000	.508	780	.39
333.15	60000	.508	786.6	.3933
333.15	70000	.508	792.7	.39635
333.15	80000	.508	798.6	.3993
333.15	90000	.508	804.3	.40215
333.15	100000	.508	809.4	.4047
333.15	110000	.508	814.2	.4071
333.15	120000	.508	818.4	.4092
333.15	130000	.508	823.1	.41155
333.15	140000	.508	827.4	.4137
353.15	100	.508	715.8	.3579
353.15	10000	.508	728.3	.36415
353.15	20000	.508	739.2	.3696
353.15	30000	.508	748.8	.3744
353.15	40000	.508	757.4	.3787
353.15	50000	.508	765.2	.3826
353.15	60000	.508	772.4	.3862
353.15	70000	.508	779	.3895
353.15	80000	.508	785.4	.3927
353.15	90000	.508	791.2	.3956
353.15	100000	.508	796.7	.39835
353.15	110000	.508	801.9	.40095
353.15	120000	.508	807	.4035
353.15	130000	.508	811.7	.40585
353.15	140000	.508	816.3	.40815
293.15	100	.675	770.6	.3853
293.15	10000	.675	778.9	.38945
293.15	20000	.675	786.5	.39325
293.15	30000	.675	793.4	.3967
293.15	40000	.675	799.9	.39995
293.15	50000	.675	805.8	.4029
293.15	60000	.675	811.4	.4057
293.15	70000	.675	816.7	.40835
293.15	80000	.675	821.8	.4109
293.15	90000	.675	826.5	.41325
293.15	100000	.675	831.3	.41565
293.15	110000	.675	835.5	.41775
293.15	120000	.675	839.7	.41985
293.15	130000	.675	843.7	.42185
293.15	140000	.675	847.6	.4238
313.15	100	.675	752.7	.37635
313.15	10000	.675	762	.381
313.15	20000	.675	770.4	.3852
313.15	30000	.675	778.2	.3891
313.15	40000	.675	785.2	.3926
313.15	50000	.675	791.8	.3959
313.15	60000	.675	797.9	.39895
313.15	70000	.675	803.8	.4019
313.15	80000	.675	809.1	.40455
313.15	90000	.675	814.3	.40715
313.15	100000	.675	819	.4095
313.15	110000	.675	823.8	.4119
313.15	120000	.675	828.3	.41415
313.15	130000	.675	832.5	.41625
313.15	140000	.675	836.7	.41835
333.15	100	.675	734.5	.36725
333.15	10000	.675	745.2	.3726
333.15	20000	.675	754.8	.3774
333.15	30000	.675	763.3	.38165
333.15	40000	.675	771	.3855
333.15	50000	.675	778.1	.38905
333.15	60000	.675	784.7	.39235
333.15	70000	.675	790.8	.3954
333.15	80000	.675	796.6	.3983
333.15	90000	.675	802.4	.4012
333.15	100000	.675	807.5	.40375
333.15	110000	.675	812.3	.40615
333.15	120000	.675	816.5	.40825
333.15	130000	.675	821.2	.4106
333.15	140000	.675	825.5	.41275
353.15	100	.675	714.6	.3573
353.15	10000	.675	727	.3635
353.15	20000	.675	737.8	.3689
353.15	30000	.675	747.3	.37365
353.15	40000	.675	755.8	.3779
353.15	50000	.675	763.7	.38185
353.15	60000	.675	770.7	.38535
353.15	70000	.675	777.4	.3887
353.15	80000	.675	783.7	.39185
353.15	90000	.675	789.6	.3948
353.15	100000	.675	795	.3975
353.15	110000	.675	800.2	.4001
353.15	120000	.675	805.2	.4026
353.15	130000	.675	809.9	.40495
353.15	140000	.675	814.5	.40725
293.15	100	.8477	769	.3845
293.15	10000	.8477	777.3	.38865
293.15	20000	.8477	784.9	.39245
293.15	30000	.8477	791.8	.3959
293.15	40000	.8477	798.3	.39915
293.15	50000	.8477	804.2	.4021
293.15	60000	.8477	809.7	.40485
293.15	70000	.8477	815.1	.40755
293.15	80000	.8477	820.1	.41005
293.15	90000	.8477	824.8	.4124
293.15	100000	.8477	829.7	.41485
293.15	110000	.8477	833.9	.41695
293.15	120000	.8477	838.1	.41905
293.15	130000	.8477	842.1	.42105
293.15	140000	.8477	846.1	.42305
313.15	100	.8477	751.4	.3757
313.15	10000	.8477	760.6	.3803
313.15	20000	.8477	769	.3845
313.15	30000	.8477	776.8	.3884
313.15	40000	.8477	783.8	.3919
313.15	50000	.8477	790.4	.3952
313.15	60000	.8477	796.5	.39825
313.15	70000	.8477	802.4	.4012
313.15	80000	.8477	807.7	.40385
313.15	90000	.8477	812.9	.40645
313.15	100000	.8477	817.6	.4088
313.15	110000	.8477	822.3	.41115
313.15	120000	.8477	826.9	.41345
313.15	130000	.8477	831.1	.41555
313.15	140000	.8477	835.3	.41765
333.15	100	.8477	733.3	.36665
333.15	10000	.8477	744	.372
333.15	20000	.8477	753.5	.37675
333.15	30000	.8477	762	.381
333.15	40000	.8477	769.7	.38485
333.15	50000	.8477	776.8	.3884
333.15	60000	.8477	783.3	.39165
333.15	70000	.8477	789.4	.3947
333.15	80000	.8477	795.3	.39765
333.15	90000	.8477	801	.4005
333.15	100000	.8477	806.1	.40305
333.15	110000	.8477	810.9	.40545
333.15	120000	.8477	815.1	.40755
333.15	130000	.8477	819.8	.4099
333.15	140000	.8477	824.1	.41205
353.15	100	.8477	714.2	.3571
353.15	10000	.8477	726.5	.36325
353.15	20000	.8477	737.2	.3686
353.15	30000	.8477	746.7	.37335
353.15	40000	.8477	755.2	.3776
353.15	50000	.8477	762.9	.38145
353.15	60000	.8477	770	.385
353.15	70000	.8477	776.6	.3883
353.15	80000	.8477	782.9	.39145
353.15	90000	.8477	788.7	.39435
353.15	100000	.8477	794.1	.39705
353.15	110000	.8477	799.3	.39965
353.15	120000	.8477	804.3	.40215
353.15	130000	.8477	809	.4045
353.15	140000	.8477	813.6	.4068
