Measured thermophysical data. Vapor-liquid equilibria for the 1,1,1,2 -tetrafluoroethane (HFC-134a) + 1,1,1,2,3,3,3-heptafluoropropane (HFC-227ea) and 1,1,1-trifluoroethane (HFC-143a) + 2,3,3,3-tetrafluoroprop-1-ene (HFO-1234yf) systems
Source: Fluid Phase Equilib., 2013, 10.1016/j.fluid.2013.09.056
Compound 1: 2,3,3,3-tetrafluoroprop-1-ene, C3H2F4, purity 99.9%
Compound 2: 1,1,1,2-tetrafluoroethane, C2H2F4, purity 99.9%
Compound 3: 1,1,1,2,3,3,3-heptafluoropropane, C3HF7, purity 99.9%
Compound 4: 1,1,1-trifluoroethane, C2H3F3, purity 99.8%

System: 2,3,3,3-tetrafluoroprop-1-ene; phases: Liquid, Gas
Property: Vapor or sublimation pressure, kPa (Liquid); method: Closed cell (Static) method
Temperature, K	Vapor or sublimation pressure, kPa	uncertainty
283.15	436.5	3.5
293.15	591	3.5
303.15	780.5	3.5
313.15	1015.6	3.5
323.15	1300.7	3.5

System: 1,1,1,2-tetrafluoroethane; phases: Liquid, Gas
Property: Vapor or sublimation pressure, kPa (Liquid); method: Closed cell (Static) method
Temperature, K	Vapor or sublimation pressure, kPa	uncertainty
283.15	414	3.5
293.15	571.5	3.5
303.15	767	3.5
313.15	1013	3.5
323.15	1314.7	3.5

System: 1,1,1,2,3,3,3-heptafluoropropane; phases: Liquid, Gas
Property: Vapor or sublimation pressure, kPa (Liquid); method: Closed cell (Static) method
Temperature, K	Vapor or sublimation pressure, kPa	uncertainty
283.15	278.9	3.5
293.15	388	3.5
303.15	524.5	3.5
313.15	699	3.5
323.15	912.4	3.5

System: 1,1,1-trifluoroethane; phases: Liquid, Gas
Property: Vapor or sublimation pressure, kPa (Liquid); method: Closed cell (Static) method
Temperature, K	Vapor or sublimation pressure, kPa	uncertainty
283.15	838.6	3.5
293.15	1107.9	3.5
303.15	1435.2	3.5
313.15	1834	3.5
323.15	2309.7	3.5

System: 1,1,1,2,3,3,3-heptafluoropropane + 1,1,1,2-tetrafluoroethane; phases: Gas, Liquid
Property: Vapor or sublimation pressure, kPa (Gas); method: Closed cell (Static) method
Mole fraction of 1,1,1,2-tetrafluoroethane	Temperature, K	Vapor or sublimation pressure, kPa	uncertainty
0	283.15	278.9	3.5
.073	283.15	292.6	3.5
.2228	283.15	317.8	3.5
.3238	283.15	335.1	3.5
.4314	283.15	349.1	3.5
.5297	283.15	363.4	3.5
.7004	283.15	384	3.5
.8099	283.15	396.7	3.5
.8854	283.15	405.6	3.5
1	283.15	414	3.5
0	293.15	388	3.5
.073	293.15	406.6	3.5
.2228	293.15	441.2	3.5
.3238	293.15	463.4	3.5
.4314	293.15	484.1	3.5
.5297	293.15	502.1	3.5
.7004	293.15	529.8	3.5
.8099	293.15	546.2	3.5
.8854	293.15	558.7	3.5
1	293.15	571.5	3.5
0	303.15	524.5	3.5
.073	303.15	548.1	3.5
.2228	303.15	595.1	3.5
.3238	303.15	624.7	3.5
.4314	303.15	653	3.5
.5297	303.15	679.2	3.5
.7004	303.15	713.8	3.5
.8099	303.15	736.3	3.5
.8854	303.15	751.4	3.5
1	303.15	767	3.5
0	313.15	699	3.5
.072	313.15	728.1	3.5
.2228	313.15	788.8	3.5
.3238	313.15	824	3.5
.4332	313.15	859.6	3.5
.5297	313.15	890.8	3.5
.7004	313.15	939.7	3.5
.8099	313.15	969.2	3.5
.8854	313.15	988.4	3.5
1	313.15	1013	3.5
0	323.15	912.4	3.5
.072	323.15	945.7	3.5
.2228	323.15	1028.8	3.5
.3218	323.15	1070.8	3.5
.4332	323.15	1116.9	3.5
.5297	323.15	1156.3	3.5
.7004	323.15	1219.3	3.5
.8099	323.15	1257.6	3.5
.8854	323.15	1282.7	3.5
1	323.15	1314.7	3.5

System: 1,1,1,2,3,3,3-heptafluoropropane + 1,1,1,2-tetrafluoroethane; phases: Gas, Liquid
Property: Mole fraction of 1,1,1,2-tetrafluoroethane (Gas); method: Chromatography
Mole fraction of 1,1,1,2-tetrafluoroethane	Temperature, K	Mole fraction of 1,1,1,2-tetrafluoroethane	uncertainty
0	283.15	0	.002
.073	283.15	.108	.002
.2228	283.15	.3057	.002
.3238	283.15	.4143	.002
.4314	283.15	.5287	.002
.5297	283.15	.6168	.002
.7004	283.15	.7643	.002
.8099	283.15	.8517	.002
.8854	283.15	.9093	.002
1	283.15	1	.002
0	293.15	0	.002
.073	293.15	.1064	.002
.2228	293.15	.2998	.002
.3238	293.15	.4098	.002
.4314	293.15	.5226	.002
.5297	293.15	.6132	.002
.7004	293.15	.7599	.002
.8099	293.15	.8483	.002
.8854	293.15	.9084	.002
1	293.15	1	.002
0	303.15	0	.002
.073	303.15	.1043	.002
.2228	303.15	.2957	.002
.3238	303.15	.4062	.002
.4314	303.15	.516	.002
.5297	303.15	.6089	.002
.7004	303.15	.7564	.002
.8099	303.15	.8462	.002
.8854	303.15	.9076	.002
1	303.15	1	.002
0	313.15	0	.002
.072	313.15	.1012	.002
.2228	313.15	.2914	.002
.3238	313.15	.3961	.002
.4332	313.15	.5106	.002
.5297	313.15	.601	.002
.7004	313.15	.752	.002
.8099	313.15	.8428	.002
.8854	313.15	.9056	.002
1	313.15	1	.002
0	323.15	0	.002
.072	323.15	.0984	.002
.2228	323.15	.2832	.002
.3218	323.15	.3934	.002
.4332	323.15	.503	.002
.5297	323.15	.5932	.002
.7004	323.15	.7477	.002
.8099	323.15	.8404	.002
.8854	323.15	.9031	.002
1	323.15	1	.002

System: 1,1,1-trifluoroethane + 2,3,3,3-tetrafluoroprop-1-ene; phases: Gas, Liquid
Property: Vapor or sublimation pressure, kPa (Gas); method: Closed cell (Static) method
Mole fraction of 1,1,1-trifluoroethane	Temperature, K	Vapor or sublimation pressure, kPa	uncertainty
0	283.15	436.5	3.5
.0809	283.15	472.6	3.5
.2022	283.15	524.6	3.5
.3656	283.15	591.3	3.5
.4954	283.15	642.3	3.5
.6858	283.15	716.7	3.5
.7799	283.15	753.3	3.5
.839	283.15	774.7	3.5
1	283.15	839.6	3.5
0	293.15	591	3.5
.0809	293.15	635.6	3.5
.2022	293.15	702.4	3.5
.3656	293.15	787.3	3.5
.4954	293.15	853.6	3.5
.6858	293.15	950	3.5
.7799	293.15	996.3	3.5
.839	293.15	1024.7	3.5
1	293.15	1108.9	3.5
0	303.15	780.5	3.5
.0809	303.15	842.8	3.5
.2022	303.15	921.5	3.5
.3656	303.15	1027.6	3.5
.4954	303.15	1111	3.5
.6858	303.15	1233.1	3.5
.7799	303.15	1292.8	3.5
.839	303.15	1324	3.5
1	303.15	1436.2	3.5
0	313.15	1015.6	3.5
.0809	313.15	1084.2	3.5
.2022	313.15	1184.7	3.5
.3656	313.15	1315.6	3.5
.4954	313.15	1419.6	3.5
.6858	313.15	1571.8	3.5
.7799	313.15	1648.5	3.5
.839	313.15	1695.7	3.5
1	313.15	1835	3.5
0	323.15	1300.7	3.5
.0809	323.15	1382.4	3.5
.2022	323.15	1502.8	3.5
.3656	323.15	1662.6	3.5
.4954	323.15	1792.6	3.5
.6858	323.15	1979.4	3.5
.7799	323.15	2076.1	3.5
.839	323.15	2136.5	3.5
1	323.15	2310.7	3.5

System: 1,1,1-trifluoroethane + 2,3,3,3-tetrafluoroprop-1-ene; phases: Gas, Liquid
Property: Mole fraction of 1,1,1-trifluoroethane (Gas); method: Chromatography
Mole fraction of 1,1,1-trifluoroethane	Temperature, K	Mole fraction of 1,1,1-trifluoroethane	uncertainty
0	283.15	0	.002
.0809	283.15	.1338	.002
.2022	283.15	.3134	.002
.3656	283.15	.4991	.002
.4954	283.15	.6266	.002
.6858	283.15	.7875	.002
.7799	283.15	.8551	.002
.839	283.15	.8975	.002
1	283.15	1	.002
0	293.15	0	.002
.0809	293.15	.1299	.002
.2022	293.15	.3029	.002
.3656	293.15	.4905	.002
.4954	293.15	.6172	.002
.6858	293.15	.7802	.002
.7799	293.15	.8497	.002
.839	293.15	.8938	.002
1	293.15	1	.002
0	303.15	0	.002
.0809	303.15	.1258	.002
.2022	303.15	.2933	.002
.3656	303.15	.4812	.002
.4954	303.15	.6071	.002
.6858	303.15	.7718	.002
.7799	303.15	.8438	.002
.839	303.15	.888	.002
1	303.15	1	.002
0	313.15	0	.002
.0809	313.15	.1204	.002
.2022	313.15	.2821	.002
.3656	313.15	.4684	.002
.4954	313.15	.5958	.002
.6858	313.15	.7617	.002
.7799	313.15	.8365	.002
.839	313.15	.8825	.002
1	313.15	1	.002
0	323.15	0	.002
.0809	323.15	.1158	.002
.2022	323.15	.2722	.002
.3656	323.15	.454	.002
.4954	323.15	.582	.002
.6858	323.15	.7518	.002
.7799	323.15	.8287	.002
.839	323.15	.877	.002
1	323.15	1	.002
