Measured thermophysical data. Measurement of vapor-liquid-liquid phase equilibrium - Equipment and results
Source: Fluid Phase Equilib., 2015, 10.1016/j.fluid.2015.07.009
Compound 1: methane, CH4, purity 99%
Compound 2: methanol, CH4O, purity 99%

System: methanol + methane; phases: Liquid, Gas
Property: Vapor or sublimation pressure, kPa (Liquid); method: Closed cell (Static) method
Mole fraction of methane	Temperature, K	Vapor or sublimation pressure, kPa	uncertainty
.02931	298	3720	50
.04343	298	5520	50
.07464	298	9480	50
.10857	298	13790	50
.12214	298	15510	50

System: methanol + methane; phases: Gas, Liquid
Property: Mole fraction of methanol (Gas); method: Chromatography
Mole fraction of methane	Temperature, K	Mole fraction of methanol	uncertainty
.02931	298	.007	.00021
.04343	298	.00532	.0001596
.07464	298	.00382	.0001146
.10857	298	.00441	.0001323
.12214	298	.00469	.0001407
