Measured thermophysical data. Phase equilibria on five binary systems containing 1-butanethiol and 3-methylthiophene in hydrocarbons
Source: Fluid Phase Equilib., 2010, 10.1016/j.fluid.2010.02.030
Compound 1: 1-butanethiol, C4H10S
Compound 2: 3-methylthiophene, C5H6S
Compound 3: methylcyclopentane, C6H12
Compound 4: 2,2,4-trimethylpentane, C8H18
Compound 5: toluene, C7H8
Compound 6: 1,2-dimethylbenzene, C8H10
Compound 7: 1,2,4-trimethylbenzene, C9H12

System: 1-butanethiol; phases: Liquid, Gas
Property: Vapor or sublimation pressure, kPa (Liquid); method: Ebulliometric method (Recirculating still)
Temperature, K	Vapor or sublimation pressure, kPa	uncertainty
371.04	100.5	.17
368.05	91.6	.17
364.39	81.9	.17
360.57	72.6	.17
355.65	61.9	.17
350.44	52.1	.17
343.41	40.9	.17
336.1	31.4	.17
328.08	23.1	.17

System: 1,2,4-trimethylbenzene; phases: Liquid, Gas
Property: Vapor or sublimation pressure, kPa (Liquid); method: Ebulliometric method (Recirculating still)
Temperature, K	Vapor or sublimation pressure, kPa	uncertainty
442.22	101.4	.17
437.83	90.4	.17
433.42	80.3	.17
428.53	70.3	.17
422.84	60	.17
416.75	50.3	.17
408.87	39.8	.17
400.11	30.3	.17
387.74	20.1	.17
383.15	16.9	.17

System: methylcyclopentane + 1-butanethiol; phases: Gas, Liquid
Fixed: Temperature, K = 343.15
Property: Mole fraction of 1-butanethiol (Gas); method: Chromatography
Mole fraction of 1-butanethiol	Mole fraction of 1-butanethiol	uncertainty
0	0	.003
.061	.037	.003
.145	.085	.003
.248	.147	.003
.373	.216	.003
.507	.305	.003
.634	.405	.003
.763	.544	.003
.862	.681	.003
.94	.843	.003
1	1	.003

System: methylcyclopentane + 1-butanethiol; phases: Liquid, Gas
Fixed: Temperature, K = 343.15
Property: Vapor or sublimation pressure, kPa (Liquid); method: Ebulliometric method (Recirculating still)
Mole fraction of 1-butanethiol	Vapor or sublimation pressure, kPa	uncertainty
0	95.9	.17
.061	93.7	.17
.145	90.3	.17
.248	86	.17
.373	80.5	.17
.507	74	.17
.634	66.9	.17
.763	58.9	.17
.862	51.9	.17
.94	45.7	.17
1	40.5	.17

System: 1-butanethiol + 2,2,4-trimethylpentane; phases: Gas, Liquid
Fixed: Temperature, K = 368.15
Property: Mole fraction of 1-butanethiol (Gas); method: Chromatography
Mole fraction of 1-butanethiol	Mole fraction of 1-butanethiol	uncertainty
0	0	.003
.04	.055	.003
.09	.119	.003
.154	.193	.003
.231	.273	.003
.313	.351	.003
.396	.423	.003
.47	.486	.003
.548	.548	.003
.617	.604	.003
.677	.654	.003
.735	.705	.003
.789	.755	.003
.839	.803	.003
.886	.854	.003
.925	.9	.003
1	1	.003

System: 1-butanethiol + 2,2,4-trimethylpentane; phases: Liquid, Gas
Fixed: Temperature, K = 368.15
Property: Vapor or sublimation pressure, kPa (Liquid); method: Ebulliometric method (Recirculating still)
Mole fraction of 1-butanethiol	Vapor or sublimation pressure, kPa	uncertainty
0	90.3	.17
.04	91.9	.17
.09	93.5	.17
.154	95.4	.17
.231	97.3	.17
.313	99	.17
.396	100	.17
.47	100.4	.17
.548	100.7	.17
.617	100.5	.17
.677	100.3	.17
.735	99.6	.17
.789	98.6	.17
.839	97.6	.17
.886	96.2	.17
.925	94.9	.17
1	91.7	.17

System: toluene + 3-methylthiophene; phases: Gas, Liquid
Fixed: Temperature, K = 383.15
Property: Mole fraction of 3-methylthiophene (Gas); method: Chromatography
Mole fraction of 3-methylthiophene	Mole fraction of 3-methylthiophene	uncertainty
0	0	.003
.047	.041	.003
.113	.102	.003
.203	.184	.003
.307	.281	.003
.415	.382	.003
.525	.492	.003
.627	.594	.003
.718	.688	.003
.797	.772	.003
.88	.865	.003
1	1	.003

System: toluene + 3-methylthiophene; phases: Liquid, Gas
Fixed: Temperature, K = 383.15
Property: Vapor or sublimation pressure, kPa (Liquid); method: Ebulliometric method (Recirculating still)
Mole fraction of 3-methylthiophene	Vapor or sublimation pressure, kPa	uncertainty
0	100	.17
.047	99.4	.17
.113	98.6	.17
.203	97.6	.17
.307	96.3	.17
.415	94.9	.17
.525	93.3	.17
.627	92.2	.17
.718	90.8	.17
.797	89.8	.17
.88	88.5	.17
1	86.5	.17

System: 1,2-dimethylbenzene + 3-methylthiophene; phases: Gas, Liquid
Fixed: Temperature, K = 383.15
Property: Mole fraction of 3-methylthiophene (Gas); method: Chromatography
Mole fraction of 3-methylthiophene	Mole fraction of 3-methylthiophene	uncertainty
0	0	.003
.081	.179	.003
.18	.336	.003
.293	.488	.003
.403	.606	.003
.516	.708	.003
.621	.789	.003
.712	.85	.003
.799	.9	.003
.873	.936	.003
1	1	.003

System: 1,2-dimethylbenzene + 3-methylthiophene; phases: Liquid, Gas
Fixed: Temperature, K = 383.15
Property: Vapor or sublimation pressure, kPa (Liquid); method: Ebulliometric method (Recirculating still)
Mole fraction of 3-methylthiophene	Vapor or sublimation pressure, kPa	uncertainty
0	37.2	.17
.081	41.4	.17
.18	46.2	.17
.293	51.9	.17
.403	57.6	.17
.516	63.1	.17
.621	68.3	.17
.712	73.1	.17
.799	77.2	.17
.873	80.6	.17
1	86.6	.17

System: 1,2,4-trimethylbenzene + 3-methylthiophene; phases: Gas, Liquid
Fixed: Temperature, K = 383.15
Property: Mole fraction of 3-methylthiophene (Gas); method: Chromatography
Mole fraction of 3-methylthiophene	Mole fraction of 3-methylthiophene	uncertainty
0	0	.003
.064	.259	.003
.15	.467	.003
.267	.643	.003
.39	.763	.003
.54	.855	.003
.669	.908	.003
.786	.949	.003
.886	.974	.003
.95	.989	.003
1	1	.003

System: 1,2,4-trimethylbenzene + 3-methylthiophene; phases: Liquid, Gas
Fixed: Temperature, K = 383.15
Property: Vapor or sublimation pressure, kPa (Liquid); method: Ebulliometric method (Recirculating still)
Mole fraction of 3-methylthiophene	Vapor or sublimation pressure, kPa	uncertainty
0	16.9	.17
.064	21.6	.17
.15	27.5	.17
.267	35.6	.17
.39	44.7	.17
.54	54.9	.17
.669	63.6	.17
.786	71.8	.17
.886	78.7	.17
.95	83.2	.17
1	86.5	.17
