Measured thermophysical data. Standard reference data for the air-liquid and vapor-liquid surface tension of benzene
Source: Fluid Phase Equilib., 2013, 10.1016/j.fluid.2013.07.053
Compound 1: benzene, C6H6, purity 99.8%

System: benzene; phases: Liquid, Air at 1 atmosphere
Property: Surface tension liquid-gas, N/m (Liquid); method: Ring tensiometer
Temperature, K	Surface tension liquid-gas, N/m	uncertainty
280.25	.03065	.00004
283.13	.03025	.00004
285.64	.0299	.00004
288.11	.02961	.00004
290.58	.02926	.00004
293.08	.02894	.00004
295.46	.02861	.00004
298.09	.02827	.00004
300.41	.02795	.00004
303.24	.02759	.00004
306	.02721	.00004
308.05	.02695	.00004
310.32	.02664	.00004
313.44	.02622	.00004

System: benzene; phases: Liquid, Air at 1 atmosphere
Property: Surface tension liquid-gas, N/m (Liquid); method: Ring tensiometer
Temperature, K	Surface tension liquid-gas, N/m	uncertainty
279.73	.03069	.00004
282.83	.0303	.00004
286.5	.02979	.00004
287.98	.0296	.00004
290.35	.02928	.00004
293.2	.0289	.00004
295.49	.02861	.00004
298.25	.02824	.00004
300.12	.02799	.00004
303.05	.02759	.00004
305.65	.02724	.00004
308.22	.02691	.00004
313.44	.02624	.00004

System: benzene; phases: Liquid, Air at 1 atmosphere
Property: Surface tension liquid-gas, N/m (Liquid); method: Ring tensiometer
Temperature, K	Surface tension liquid-gas, N/m	uncertainty
280.09	.03065	.00004
282.97	.03026	.00004
286.58	.02978	.00004
288.31	.02956	.00004
293.21	.02888	.00004
298.18	.02824	.00004
302.95	.02761	.00004
308.17	.02693	.00004
311.45	.02647	.00004
313.7	.02618	.00004
