Measured thermophysical data. Vapor - liquid equilibria of fluoroethane (HFC-161) + 2,3,3,3 - tetrafluoroprop - 1 - ene (HFO- 1234yf)
Source: Fluid Phase Equilib., 2015, 10.1016/j.fluid.2015.02.014
Compound 1: ethane, fluoro-, C2H5F, purity 99.9%
Compound 2: 2,3,3,3-tetrafluoroprop-1-ene, C3H2F4, purity 99.9%

System: ethane, fluoro-; phases: Liquid, Gas
Property: Vapor or sublimation pressure, kPa (Liquid); method: Closed cell (Static) method
Temperature, K	Vapor or sublimation pressure, kPa	uncertainty
283.15	601.2	.5
293.15	805.6	.5
303.15	1058.8	.5
313.15	1365.8	.5
323.15	1735.2	.5

System: 2,3,3,3-tetrafluoroprop-1-ene; phases: Liquid, Gas
Property: Vapor or sublimation pressure, kPa (Liquid); method: Closed cell (Static) method
Temperature, K	Vapor or sublimation pressure, kPa	uncertainty
283.15	437.9	.5
293.15	591.5	.5
303.15	782.9	.5
313.15	1018.2	.5
323.15	1302.4	.5

System: ethane, fluoro- + 2,3,3,3-tetrafluoroprop-1-ene; phases: Liquid, Gas
Property: Vapor or sublimation pressure, kPa (Liquid); method: Closed cell (Static) method
Mole fraction of ethane, fluoro-	Temperature, K	Vapor or sublimation pressure, kPa	uncertainty
0	283.15	437.9	.5
.1605	283.15	472	.5
.2272	283.15	482.8	.5
.2941	283.15	496.6	.5
.4117	283.15	514.8	.5
.5166	283.15	536	.5
.6245	283.15	551.3	.5
.7327	283.15	564.4	.5
.815	283.15	579.8	.5
.8839	283.15	589.1	.5
.9278	283.15	594.4	.5
1	283.15	601.2	.5
0	293.15	591.5	.5
.1605	293.15	636.7	.5
.2272	293.15	650.6	.5
.2941	293.15	668.6	.5
.4117	293.15	694.4	.5
.5166	293.15	720.5	.5
.6245	293.15	740.2	.5
.7327	293.15	758.3	.5
.815	293.15	778.3	.5
.8839	293.15	789.6	.5
.9278	293.15	797.9	.5
1	293.15	805.6	.5
0	303.15	782.9	.5
.1605	303.15	843.5	.5
.2272	303.15	859.1	.5
.2941	303.15	881.1	.5
.4117	303.15	913.6	.5
.5166	303.15	948.5	.5
.6245	303.15	973.5	.5
.7327	303.15	998.6	.5
.815	303.15	1022.9	.5
.8839	303.15	1036.5	.5
.9278	303.15	1046.6	.5
1	303.15	1058.8	.5
0	313.15	1018.2	.5
.1605	313.15	1090.9	.5
.2272	313.15	1113.7	.5
.2941	313.15	1140.2	.5
.4117	313.15	1186.8	.5
.5166	313.15	1223.9	.5
.6245	313.15	1258.5	.5
.7327	313.15	1291	.5
.815	313.15	1320.4	.5
.8839	313.15	1339	.5
.9278	313.15	1350.5	.5
1	313.15	1365.8	.5
0	323.15	1302.4	.5
.1605	323.15	1390.7	.5
.2272	323.15	1419.5	.5
.2941	323.15	1453.5	.5
.4117	323.15	1510.6	.5
.5166	323.15	1559.8	.5
.6245	323.15	1604.5	.5
.7327	323.15	1644.5	.5
.815	323.15	1678.4	.5
.8839	323.15	1700.4	.5
.9278	323.15	1714.8	.5
1	323.15	1735.2	.5

System: ethane, fluoro- + 2,3,3,3-tetrafluoroprop-1-ene; phases: Gas, Liquid
Property: Mole fraction of ethane, fluoro- (Gas); method: Chromatography
Mole fraction of ethane, fluoro-	Temperature, K	Mole fraction of ethane, fluoro-	uncertainty
0	283.15	0	.003
.1605	283.15	.2108	.003
.2272	283.15	.2788	.003
.2941	283.15	.3608	.003
.4117	283.15	.4912	.003
.5166	283.15	.5896	.003
.6245	283.15	.6846	.003
.7327	283.15	.7779	.003
.815	283.15	.8506	.003
.8839	283.15	.9033	.003
.9278	283.15	.9385	.003
1	283.15	1	.003
0	293.15	0	.003
.1605	293.15	.207	.003
.2272	293.15	.2757	.003
.2941	293.15	.3532	.003
.4117	293.15	.4857	.003
.5166	293.15	.5825	.003
.6245	293.15	.6819	.003
.7327	293.15	.7734	.003
.815	293.15	.8487	.003
.8839	293.15	.9012	.003
.9278	293.15	.9371	.003
1	293.15	1	.003
0	303.15	0	.003
.1605	303.15	.2	.003
.2272	303.15	.2709	.003
.2941	303.15	.3476	.003
.4117	303.15	.4746	.003
.5166	303.15	.5768	.003
.6245	303.15	.6731	.003
.7327	303.15	.7708	.003
.815	303.15	.8446	.003
.8839	303.15	.8989	.003
.9278	303.15	.9361	.003
1	303.15	1	.003
0	313.15	0	.003
.1605	313.15	.1958	.003
.2272	313.15	.2654	.003
.2941	313.15	.3413	.003
.4117	313.15	.4679	.003
.5166	313.15	.5672	.003
.6245	313.15	.6687	.003
.7327	313.15	.7682	.003
.815	313.15	.8422	.003
.8839	313.15	.8993	.003
.9278	313.15	.9357	.003
1	313.15	1	.003
0	323.15	0	.003
.1605	323.15	.1941	.003
.2272	323.15	.2583	.003
.2941	323.15	.3346	.003
.4117	323.15	.4628	.003
.5166	323.15	.5616	.003
.6245	323.15	.6621	.003
.7327	323.15	.7634	.003
.815	323.15	.8393	.003
.8839	323.15	.897	.003
.9278	323.15	.9345	.003
1	323.15	1	.003
