Measured thermophysical data. Excess properties and isobaric vapor liquid equilibria for four binary systems of  alkyl (methyl to butyl) methanoates with decane
Source: Fluid Phase Equilib., 2010, 10.1016/j.fluid.2009.12.003
Compound 1: methyl methanoate, C2H4O2
Compound 2: ethyl methanoate, C3H6O2
Compound 3: propyl methanoate, C4H8O2
Compound 4: butyl methanoate, C5H10O2
Compound 5: decane, C10H22

System: methyl methanoate + decane; phases: Liquid
Fixed: Pressure, kPa = 101.3
Property: Excess molar enthalpy (molar enthalpy of mixing), kJ/mol (Liquid); method: Calvet calorimetry
Temperature, K	Mole fraction of methyl methanoate	Excess molar enthalpy (molar enthalpy of mixing), kJ/mol	uncertainty
291.15	.0913	.843	.002
291.15	.1855	1.523	.002
291.15	.2836	2.048	.002
291.15	.355	2.314	.002
291.15	.4355	2.523	.002
291.15	.4992	2.565	.002
291.15	.5501	2.522	.002
291.15	.6223	2.384	.002
291.15	.657	2.28	.002
291.15	.6961	2.151	.002
291.15	.7358	1.988	.002
291.15	.7753	1.818	.002
291.15	.8182	1.603	.002
291.15	.8575	1.392	.002
291.15	.8913	1.167	.002
291.15	.9242	.954	.002
291.15	.9517	.683	.002
291.15	.978	.37	.002

System: methyl methanoate + decane; phases: Liquid
Fixed: Pressure, kPa = 101.32
Property: Mass density, kg/m3 (Liquid); method: Vibrating tube method
Temperature, K	Mole fraction of methyl methanoate	Mass density, kg/m3	uncertainty
291.15	0	731.24	.04
291.15	.0586	734.13	.04
291.15	.1175	737.52	.04
291.15	.1207	737.49	.04
291.15	.1852	741.83	.04
291.15	.2211	744.6	.04
291.15	.3017	751.85	.04
291.15	.4028	763.44	.04
291.15	.5045	778.54	.04
291.15	.6061	798.22	.04
291.15	.6969	820.96	.04
291.15	.7505	837.89	.04
291.15	.8031	857.11	.04
291.15	.8422	873.82	.04
291.15	.9005	902.87	.04
291.15	.9514	936.01	.04
291.15	1	976.9	.04
298.15	0	726.26	.04
298.15	.0066	726.63	.04
298.15	.0509	728.85	.04
298.15	.125	732.64	.04
298.15	.157	734.47	.04
298.15	.2245	739.31	.04
298.15	.2785	744.09	.04
298.15	.3728	753.68	.04
298.15	.4849	768.98	.04
298.15	.5941	789.08	.04
298.15	.6968	813.83	.04
298.15	.7424	827.18	.04
298.15	.7939	845.3	.04
298.15	.845	866.07	.04
298.15	.8953	890.78	.04
298.15	.9458	922.09	.04
298.15	1	966.54	.04

System: methyl methanoate + decane; phases: Liquid
Fixed: Pressure, kPa = 101.32
Property: Excess molar volume, m3/mol (Liquid); method: Calculated with densities of this investigation
Temperature, K	Mole fraction of methyl methanoate	Excess molar volume, m3/mol	uncertainty
291.15	0	0	.000000002
291.15	.0586	.000000471	.000000002
291.15	.1175	.000000881	.000000002
291.15	.1207	.000000959	.000000002
291.15	.1852	.000001343	.000000002
291.15	.2211	.00000152	.000000002
291.15	.3017	.000001826	.000000002
291.15	.4028	.000002021	.000000002
291.15	.5045	.000002044	.000000002
291.15	.6061	.000001907	.000000002
291.15	.6969	.000001691	.000000002
291.15	.7505	.000001475	.000000002
291.15	.8031	.000001272	.000000002
291.15	.8422	.000001098	.000000002
291.15	.9005	.000000859	.000000002
291.15	.9514	.000000483	.000000002
291.15	1	0	.000000002
298.15	0	0	.000000002
298.15	.0066	.000000033	.000000002
298.15	.0509	.000000367	.000000002
298.15	.125	.000000984	.000000002
298.15	.157	.000001234	.000000002
298.15	.2245	.000001603	.000000002
298.15	.2785	.000001783	.000000002
298.15	.3728	.000002069	.000000002
298.15	.4849	.000002132	.000000002
298.15	.5941	.000001967	.000000002
298.15	.6968	.000001731	.000000002
298.15	.7424	.000001612	.000000002
298.15	.7939	.000001385	.000000002
298.15	.845	.000001187	.000000002
298.15	.8953	.000000942	.000000002
298.15	.9458	.000000574	.000000002
298.15	1	0	.000000002

System: methyl methanoate + decane; phases: Liquid, Gas
Fixed: Pressure, kPa = 101.32
Property: Boiling temperature at pressure P, K (Liquid); method: Ebulliometric method (Recirculating still)
Mole fraction of methyl methanoate	Boiling temperature at pressure P, K	uncertainty
0	446.93	.04
.1828	323.96	.04
.2256	318.08	.04
.281	312.32	.04
.3184	309.71	.04
.374	307.51	.04
.4566	307.28	.04
.4813	307.24	.04
.5586	306.23	.04
.6443	306.06	.04
.7422	306.07	.04
.7513	306.13	.04
.7573	306.05	.04
.7683	306.04	.04
.7951	305.88	.04
.8046	306.01	.04
.8156	306.04	.04
.8497	306.02	.04
.8534	305.97	.04
.8736	305.95	.04
.8788	305.85	.04
.8958	305.78	.04
.9279	305.64	.04
.9507	305.45	.04
1	304.7	.04

System: methyl methanoate + decane; phases: Gas, Liquid
Fixed: Pressure, kPa = 101.32
Property: Mole fraction of methyl methanoate (Gas); method: Density calibration data
Mole fraction of methyl methanoate	Mole fraction of methyl methanoate	uncertainty
0	0	.002
.1828	.986	.002
.2256	.9899	.002
.281	.993	.002
.3184	.9941	.002
.374	.995	.002
.4566	.995	.002
.4813	.995	.002
.5586	.9954	.002
.6443	.9957	.002
.7422	.9962	.002
.7513	.9962	.002
.7573	.9963	.002
.7683	.9962	.002
.7951	.9964	.002
.8046	.9963	.002
.8156	.9962	.002
.8497	.9964	.002
.8534	.9964	.002
.8736	.9963	.002
.8788	.9965	.002
.8958	.9964	.002
.9279	.9965	.002
.9507	.9969	.002
1	1	.002

System: methyl methanoate + decane; phases: Liquid, Gas
Fixed: Pressure, kPa = 101.32
Property: Boiling temperature at pressure P, K (Liquid); method: Ebulliometric method (Recirculating still)
Mole fraction of methyl methanoate	Boiling temperature at pressure P, K	uncertainty
0	446.93	.05
.1828	323.96	.05
.2256	318.08	.05
.281	312.32	.05
.3184	309.71	.05
.374	307.51	.05
.4566	307.28	.05
.4813	307.24	.05
.5586	306.23	.05
.6443	306.06	.05
.7422	306.07	.05
.7513	306.13	.05
.7573	306.05	.05
.7683	306.04	.05
.7951	305.88	.05
.8046	306.01	.05
.8156	306.04	.05
.8497	306.02	.05
.8534	305.97	.05
.8736	305.95	.05
.8788	305.85	.05
.8958	305.78	.05
.9279	305.64	.05
.9507	305.45	.05
1	304.7	.05

System: methyl methanoate + decane; phases: Gas, Liquid
Fixed: Pressure, kPa = 101.32
Property: Mole fraction of methyl methanoate (Gas); method: Density calibration data
Mole fraction of methyl methanoate	Mole fraction of methyl methanoate	uncertainty
0	0	.002
.1828	.986	.002
.2256	.9899	.002
.281	.993	.002
.3184	.9941	.002
.374	.995	.002
.4566	.995	.002
.4813	.995	.002
.5586	.9954	.002
.6443	.9957	.002
.7422	.9962	.002
.7513	.9962	.002
.7573	.9963	.002
.7683	.9962	.002
.7951	.9964	.002
.8046	.9963	.002
.8156	.9962	.002
.8497	.9964	.002
.8534	.9964	.002
.8736	.9963	.002
.8788	.9965	.002
.8958	.9964	.002
.9279	.9965	.002
.9507	.9969	.002
1	1	.002

System: methyl methanoate + decane; phases: Liquid, Gas
Fixed: Mole fraction of decane = 0
Property: Activity coefficient of decane (Liquid); method: Derived
Pressure, kPa	Activity coefficient of decane	uncertainty
101.32	22.2	

System: ethyl methanoate + decane; phases: Liquid
Fixed: Pressure, kPa = 101.32
Property: Excess molar enthalpy (molar enthalpy of mixing), kJ/mol (Liquid); method: Calvet calorimetry
Temperature, K	Mole fraction of ethyl methanoate	Excess molar enthalpy (molar enthalpy of mixing), kJ/mol	uncertainty
291.15	.0822	.617	.002
291.15	.1859	1.072	.002
291.15	.2713	1.434	.002
291.15	.3499	1.694	.002
291.15	.4126	1.83	.002
291.15	.4692	1.911	.002
291.15	.5169	1.949	.002
291.15	.5649	1.951	.002
291.15	.6207	1.9	.002
291.15	.6612	1.819	.002
291.15	.7038	1.71	.002
291.15	.7476	1.557	.002
291.15	.7913	1.375	.002
291.15	.8325	1.175	.002
291.15	.8736	.93	.002
291.15	.9116	.677	.002
291.15	.9477	.369	.002
318.15	.1112	.736	.002
318.15	.2286	1.348	.002
318.15	.3382	1.763	.002
318.15	.4345	2.014	.002
318.15	.51	2.101	.002
318.15	.5685	2.094	.002
318.15	.6188	2.045	.002
318.15	.6693	1.941	.002
318.15	.7138	1.808	.002
318.15	.7758	1.594	.002
318.15	.831	1.32	.002
318.15	.8841	.997	.002
318.15	.9315	.644	.002
318.15	.9711	.307	.002

System: ethyl methanoate + decane; phases: Liquid
Fixed: Pressure, kPa = 101.32
Property: Mass density, kg/m3 (Liquid); method: Vibrating tube method
Temperature, K	Mole fraction of ethyl methanoate	Mass density, kg/m3	uncertainty
291.15	0	731.24	.04
291.15	.0369	733.67	.04
291.15	.0776	735.97	.04
291.15	.0978	737.54	.04
291.15	.134	740.05	.04
291.15	.1725	742.85	.04
291.15	.1933	744.66	.04
291.15	.257	750.31	.04
291.15	.3043	754.75	.04
291.15	.4065	766.41	.04
291.15	.5031	779.53	.04
291.15	.6097	797.49	.04
291.15	.6965	815.77	.04
291.15	.7487	828.5	.04
291.15	.7966	841.64	.04
291.15	.8479	857.71	.04
291.15	.8993	876.59	.04
291.15	.9515	898.85	.04
291.15	1	924.7	.04
298.15	0	726.26	.04
298.15	.0613	729.71	.04
298.15	.1265	734.08	.04
298.15	.1845	738.4	.04
298.15	.24	742.88	.04
298.15	.3359	752.24	.04
298.15	.4224	762.26	.04
298.15	.5	772.57	.04
298.15	.5684	783.54	.04
298.15	.6307	794.86	.04
298.15	.6827	805.36	.04
298.15	.7324	816.84	.04
298.15	.7802	828.91	.04
298.15	.8172	839.7	.04
298.15	.8519	851.25	.04
298.15	.8895	864.02	.04
298.15	.9193	876.39	.04
298.15	.9496	889.23	.04
298.15	.9781	902.17	.04
298.15	1	915.16	.04
308.15	0	717.9	.04
308.15	.0575	721.82	.04
308.15	.0851	723.08	.04
308.15	.1229	725.68	.04
308.15	.1878	730.48	.04
308.15	.2373	734.34	.04
308.15	.2993	739.84	.04
308.15	.4007	750.53	.04
308.15	.4266	753.53	.04
308.15	.5665	773.36	.04
308.15	.6829	795.01	.04
308.15	.7746	816.85	.04
308.15	.8537	839.92	.04
308.15	.9166	862.73	.04
308.15	.9764	889.19	.04
308.15	1	902.07	.04
318.15	0	710.99	.04
318.15	.0662	713.35	.04
318.15	.0942	715.02	.04
318.15	.1622	719.52	.04
318.15	.1774	720.46	.04
318.15	.2434	725.57	.04
318.15	.2955	729.88	.04
318.15	.4007	740.55	.04
318.15	.4952	752.12	.04
318.15	.5971	767.58	.04
318.15	.6941	785.97	.04
318.15	.7524	799.48	.04
318.15	.7979	811.07	.04
318.15	.8481	825.85	.04
318.15	.9055	845.58	.04
318.15	.955	866.05	.04
318.15	1	888.42	.04

System: ethyl methanoate + decane; phases: Liquid
Fixed: Pressure, kPa = 101.32
Property: Excess molar volume, m3/mol (Liquid); method: Calculated with densities of this investigation
Temperature, K	Mole fraction of ethyl methanoate	Excess molar volume, m3/mol	uncertainty
291.15	0	0	.000000002
291.15	.0369	.000000148	.000000002
291.15	.0776	.000000437	.000000002
291.15	.0978	.000000486	.000000002
291.15	.134	.000000669	.000000002
291.15	.1725	.00000086	.000000002
291.15	.1933	.000000908	.000000002
291.15	.257	.000001103	.000000002
291.15	.3043	.000001263	.000000002
291.15	.4065	.000001413	.000000002
291.15	.5031	.000001498	.000000002
291.15	.6097	.00000146	.000000002
291.15	.6965	.000001309	.000000002
291.15	.7487	.0000012	.000000002
291.15	.7966	.000001079	.000000002
291.15	.8479	.000000913	.000000002
291.15	.8993	.000000673	.000000002
291.15	.9515	.000000399	.000000002
291.15	1	0	.000000002
298.15	0	0	.000000002
298.15	.0613	.000000382	.000000002
298.15	.1265	.000000694	.000000002
298.15	.1845	.00000094	.000000002
298.15	.24	.000001166	.000000002
298.15	.3359	.000001388	.000000002
298.15	.4224	.000001507	.000000002
298.15	.5	.000001594	.000000002
298.15	.5684	.000001541	.000000002
298.15	.6307	.000001478	.000000002
298.15	.6827	.000001424	.000000002
298.15	.7324	.000001318	.000000002
298.15	.7802	.000001236	.000000002
298.15	.8172	.000001104	.000000002
298.15	.8519	.000000915	.000000002
298.15	.8895	.00000081	.000000002
298.15	.9193	.000000582	.000000002
298.15	.9496	.000000431	.000000002
298.15	.9781	.000000303	.000000002
298.15	1	0	.000000002
308.15	0	0	.000000002
308.15	.0575	.000000304	.000000002
308.15	.0851	.000000568	.000000002
308.15	.1229	.000000723	.000000002
308.15	.1878	.000000976	.000000002
308.15	.2373	.000001189	.000000002
308.15	.2993	.000001385	.000000002
308.15	.4007	.000001582	.000000002
308.15	.4266	.000001633	.000000002
308.15	.5665	.000001667	.000000002
308.15	.6829	.000001529	.000000002
308.15	.7746	.000001288	.000000002
308.15	.8537	.000001031	.000000002
308.15	.9166	.000000704	.000000002
308.15	.9764	.000000302	.000000002
308.15	1	0	.000000002
318.15	0	0	.000000002
318.15	.0662	.000000549	.000000002
318.15	.0942	.000000702	.000000002
318.15	.1622	.000001018	.000000002
318.15	.1774	.00000112	.000000002
318.15	.2434	.00000136	.000000002
318.15	.2955	.000001561	.000000002
318.15	.4007	.000001762	.000000002
318.15	.4952	.000001855	.000000002
318.15	.5971	.000001808	.000000002
318.15	.6941	.000001638	.000000002
318.15	.7524	.00000144	.000000002
318.15	.7979	.000001308	.000000002
318.15	.8481	.000001093	.000000002
318.15	.9055	.00000079	.000000002
318.15	.955	.000000429	.000000002
318.15	1	0	.000000002

System: ethyl methanoate + decane; phases: Liquid, Gas
Fixed: Pressure, kPa = 101.32
Property: Boiling temperature at pressure P, K (Liquid); method: Ebulliometric method (Recirculating still)
Mole fraction of ethyl methanoate	Boiling temperature at pressure P, K	uncertainty
0	446.93	.04
.0303	426.41	.04
.0493	410.34	.04
.0725	396.55	.04
.1226	375.24	.04
.1585	365.49	.04
.1833	360.01	.04
.2135	354.88	.04
.2807	347.55	.04
.3427	343.16	.04
.3756	342.18	.04
.4549	340.94	.04
.5634	334.54	.04
.6353	333.18	.04
.7037	331.95	.04
.7589	331.18	.04
.8192	330.53	.04
.859	329.95	.04
.8898	329.5	.04
.9147	329.12	.04
.9418	328.74	.04
.9575	328.43	.04
1	327.33	.04

System: ethyl methanoate + decane; phases: Gas, Liquid
Fixed: Pressure, kPa = 101.32
Property: Mole fraction of ethyl methanoate (Gas); method: Density calibration data
Mole fraction of ethyl methanoate	Mole fraction of ethyl methanoate	uncertainty
0	0	.002
.0303	.4204	.002
.0493	.6402	.002
.0725	.7706	.002
.1226	.8742	.002
.1585	.9304	.002
.1833	.9458	.002
.2135	.9577	.002
.2807	.9712	.002
.3427	.9776	.002
.3756	.9788	.002
.4549	.9798	.002
.5634	.9877	.002
.6353	.9891	.002
.7037	.9904	.002
.7589	.9912	.002
.8192	.9923	.002
.859	.9935	.002
.8898	.9948	.002
.9147	.9955	.002
.9418	.9968	.002
.9575	.9974	.002
1	1	.002

System: ethyl methanoate + decane; phases: Liquid, Gas
Fixed: Pressure, kPa = 101.32
Property: Boiling temperature at pressure P, K (Liquid); method: Ebulliometric method (Recirculating still)
Mole fraction of ethyl methanoate	Boiling temperature at pressure P, K	uncertainty
0	446.93	.05
.0493	410.34	.05
.0725	396.55	.05
.1226	375.24	.05
.1585	365.49	.05
.1833	360.01	.05
.2135	354.88	.05
.2807	347.55	.05
.3427	343.16	.05
.3756	342.18	.05
.4549	340.94	.05
.5634	334.54	.05
.6353	333.18	.05
.7037	331.95	.05
.7589	331.18	.05
.8192	330.53	.05
.859	329.95	.05
.8898	329.5	.05
.9147	329.12	.05
.9418	328.74	.05
.9575	328.43	.05
1	327.33	.05

System: ethyl methanoate + decane; phases: Gas, Liquid
Fixed: Pressure, kPa = 101.32
Property: Mole fraction of ethyl methanoate (Gas); method: Density calibration data
Mole fraction of ethyl methanoate	Mole fraction of ethyl methanoate	uncertainty
0	0	.002
.0493	.6402	.002
.0725	.7706	.002
.1226	.8742	.002
.1585	.9304	.002
.1833	.9458	.002
.2135	.9577	.002
.2807	.9712	.002
.3427	.9776	.002
.3756	.9788	.002
.4549	.9798	.002
.5634	.9877	.002
.6353	.9891	.002
.7037	.9904	.002
.7589	.9912	.002
.8192	.9923	.002
.859	.9935	.002
.8898	.9948	.002
.9147	.9955	.002
.9418	.9968	.002
.9575	.9974	.002
1	1	.002

System: ethyl methanoate + decane; phases: Liquid, Gas
Fixed: Mole fraction of ethyl methanoate = 0
Property: Activity coefficient of ethyl methanoate (Liquid); method: Derived
Pressure, kPa	Activity coefficient of ethyl methanoate	uncertainty
101.32	1.29	

System: ethyl methanoate + decane; phases: Liquid, Gas
Fixed: Mole fraction of decane = 0
Property: Activity coefficient of decane (Liquid); method: Derived
Pressure, kPa	Activity coefficient of decane	uncertainty
101.32	7.04	

System: propyl methanoate + decane; phases: Liquid
Fixed: Pressure, kPa = 101.32
Property: Excess molar enthalpy (molar enthalpy of mixing), kJ/mol (Liquid); method: Calvet calorimetry
Temperature, K	Mole fraction of propyl methanoate	Excess molar enthalpy (molar enthalpy of mixing), kJ/mol	uncertainty
291.15	.1222	.691	.002
291.15	.2398	1.133	.002
291.15	.3111	1.37	.002
291.15	.3728	1.494	.002
291.15	.4289	1.567	.002
291.15	.4807	1.603	.002
291.15	.5272	1.606	.002
291.15	.5698	1.589	.002
291.15	.5818	1.584	.002
291.15	.6235	1.541	.002
291.15	.6648	1.477	.002
291.15	.7081	1.386	.002
291.15	.7545	1.263	.002
291.15	.7992	1.116	.002
291.15	.8438	.938	.002
291.15	.8883	.716	.002
291.15	.9241	.513	.002
291.15	.9644	.265	.002
318.15	.1001	.602	.002
318.15	.1976	1.026	.002
318.15	.2949	1.383	.002
318.15	.3831	1.602	.002
318.15	.4596	1.709	.002
318.15	.5202	1.73	.002
318.15	.5678	1.706	.002
318.15	.6116	1.674	.002
318.15	.6118	1.665	.002
318.15	.6727	1.572	.002
318.15	.7363	1.417	.002
318.15	.8019	1.196	.002
318.15	.861	.927	.002
318.15	.9192	.603	.002
318.15	.9663	.28	.002

System: propyl methanoate + decane; phases: Liquid
Fixed: Pressure, kPa = 101.32
Property: Mass density, kg/m3 (Liquid); method: Vibrating tube method
Temperature, K	Mole fraction of propyl methanoate	Mass density, kg/m3	uncertainty
291.15	0	731.24	.04
291.15	.0462	734.81	.04
291.15	.0975	738.84	.04
291.15	.1628	744.42	.04
291.15	.198	747.82	.04
291.15	.2551	753.47	.04
291.15	.3036	758.66	.04
291.15	.3987	770.08	.04
291.15	.5018	784.66	.04
291.15	.6082	802.52	.04
291.15	.7007	820.99	.04
291.15	.752	832.38	.04
291.15	.8007	844.42	.04
291.15	.8496	858.03	.04
291.15	.8995	872.93	.04
291.15	.9521	890.53	.04
291.15	1	907.8	.04
298.15	0	726.26	.04
298.15	.0798	731.76	.04
298.15	.1057	733.56	.04
298.15	.1495	736.97	.04
298.15	.2011	741.55	.04
298.15	.5966	792.82	.04
298.15	.6972	811.78	.04
298.15	.7505	823.62	.04
298.15	.7984	834.9	.04
298.15	.85	848.77	.04
298.15	.2468	746.19	.04
298.15	.3049	752.35	.04
298.15	.3974	763.34	.04
298.15	.5035	777.85	.04
298.15	.8988	862.85	.04
298.15	.9451	877.85	.04
298.15	1	899.08	.04
308.15	0	717.9	.04
308.15	.0303	720.66	.04
308.15	.1111	726.35	.04
308.15	.1463	729.18	.04
308.15	.2137	735.1	.04
308.15	.3006	743.44	.04
308.15	.3775	752	.04
308.15	.4546	761.78	.04
308.15	.5153	770.32	.04
308.15	.5826	780.87	.04
308.15	.638	790.54	.04
308.15	.6907	800.5	.04
308.15	.7434	811.73	.04
308.15	.7917	822.76	.04
308.15	.8281	832.09	.04
308.15	.8662	842.44	.04
308.15	.9044	853.49	.04
308.15	.9379	864.36	.04
308.15	.9758	877.43	.04
308.15	1	888.36	.04
318.15	0	710.99	.04
318.15	.1032	717.87	.04
318.15	.2212	727.7	.04
318.15	.2964	734.79	.04
318.15	.3768	743.54	.04
318.15	.4559	753.18	.04
318.15	.5213	762.19	.04
318.15	.5832	771.62	.04
318.15	.6406	781.23	.04
318.15	.6917	790.77	.04
318.15	.7422	800.91	.04
318.15	.7872	810.94	.04
318.15	.8275	820.91	.04
318.15	.8681	831.82	.04
318.15	.9065	842.66	.04
318.15	.9402	853.69	.04
318.15	.9735	864.75	.04
318.15	1	875.32	.04

System: propyl methanoate + decane; phases: Liquid
Fixed: Pressure, kPa = 101.32
Property: Excess molar volume, m3/mol (Liquid); method: Calculated with densities of this investigation
Temperature, K	Mole fraction of propyl methanoate	Excess molar volume, m3/mol	uncertainty
291.15	0	0	.000000002
291.15	.0462	.000000159	.000000002
291.15	.0975	.00000037	.000000002
291.15	.1628	.000000606	.000000002
291.15	.198	.000000678	.000000002
291.15	.2551	.000000828	.000000002
291.15	.3036	.000000936	.000000002
291.15	.3987	.000001074	.000000002
291.15	.5018	.000001111	.000000002
291.15	.6082	.000001055	.000000002
291.15	.7007	.00000092	.000000002
291.15	.752	.000000849	.000000002
291.15	.8007	.000000742	.000000002
291.15	.8496	.000000573	.000000002
291.15	.8995	.000000435	.000000002
291.15	.9521	.000000255	.000000002
291.15	1	0	.000000002
298.15	0	0	.000000002
298.15	.0798	.000000428	.000000002
298.15	.1057	.000000589	.000000002
298.15	.1495	.000000795	.000000002
298.15	.2011	.000000952	.000000002
298.15	.5966	.000001183	.000000002
298.15	.6972	.000001078	.000000002
298.15	.7505	.00000094	.000000002
298.15	.7984	.000000852	.000000002
298.15	.85	.000000673	.000000002
298.15	.2468	.000001006	.000000002
298.15	.3049	.000001095	.000000002
298.15	.3974	.000001177	.000000002
298.15	.5035	.000001222	.000000002
298.15	.8988	.000000535	.000000002
298.15	.9451	.000000358	.000000002
298.15	1	0	.000000002
308.15	0	0	.000000002
308.15	.0303	.000000087	.000000002
308.15	.1111	.000000509	.000000002
308.15	.1463	.000000639	.000000002
308.15	.2137	.000000841	.000000002
308.15	.3006	.000001094	.000000002
308.15	.3775	.000001216	.000000002
308.15	.4546	.000001265	.000000002
308.15	.5153	.000001276	.000000002
308.15	.5826	.000001245	.000000002
308.15	.638	.000001184	.000000002
308.15	.6907	.000001124	.000000002
308.15	.7434	.000000999	.000000002
308.15	.7917	.000000902	.000000002
308.15	.8281	.00000077	.000000002
308.15	.8662	.000000641	.000000002
308.15	.9044	.000000523	.000000002
308.15	.9379	.000000358	.000000002
308.15	.9758	.000000181	.000000002
308.15	1	0	.000000002
318.15	0	0	.000000002
318.15	.1032	.000000526	.000000002
318.15	.2212	.000000911	.000000002
318.15	.2964	.000001119	.000000002
318.15	.3768	.000001237	.000000002
318.15	.4559	.00000132	.000000002
318.15	.5213	.000001332	.000000002
318.15	.5832	.000001317	.000000002
318.15	.6406	.000001281	.000000002
318.15	.6917	.000001205	.000000002
318.15	.7422	.000001132	.000000002
318.15	.7872	.000001028	.000000002
318.15	.8275	.000000886	.000000002
318.15	.8681	.000000724	.000000002
318.15	.9065	.000000601	.000000002
318.15	.9402	.000000387	.000000002
318.15	.9735	.000000248	.000000002
318.15	1	0	.000000002

System: propyl methanoate + decane; phases: Liquid, Gas
Fixed: Pressure, kPa = 101.32
Property: Boiling temperature at pressure P, K (Liquid); method: Ebulliometric method (Recirculating still)
Mole fraction of propyl methanoate	Boiling temperature at pressure P, K	uncertainty
0	446.93	.04
.0319	435.96	.04
.0462	430.26	.04
.0746	419.85	.04
.1121	408.45	.04
.1545	398.47	.04
.1952	391.4	.04
.2593	382.69	.04
.3094	378.05	.04
.3539	374.47	.04
.4277	370.7	.04
.5022	367.22	.04
.5421	365.85	.04
.565	364.76	.04
.6345	362.44	.04
.7009	361.1	.04
.7408	360.66	.04
.7808	359.72	.04
.8131	359	.04
.8822	357.09	.04
.9155	356	.04
.9436	355.3	.04
.965	354.75	.04
.9797	354.35	.04
.989	354.05	.04
.9978	353.76	.04
1	353.92	.04

System: propyl methanoate + decane; phases: Gas, Liquid
Fixed: Pressure, kPa = 101.32
Property: Mole fraction of propyl methanoate (Gas); method: Density calibration data
Mole fraction of propyl methanoate	Mole fraction of propyl methanoate	uncertainty
0	0	.002
.0319	.2575	.002
.0462	.371	.002
.0746	.5462	.002
.1121	.6904	.002
.1545	.7836	.002
.1952	.836	.002
.2593	.8892	.002
.3094	.9108	.002
.3539	.9268	.002
.4277	.9421	.002
.5022	.9551	.002
.5421	.9597	.002
.565	.9632	.002
.6345	.9707	.002
.7009	.9748	.002
.7408	.9759	.002
.7808	.9783	.002
.8131	.9803	.002
.8822	.9847	.002
.9155	.9874	.002
.9436	.9911	.002
.965	.994	.002
.9797	.9956	.002
.989	.9967	.002
.9978	.9993	.002
1	1	.002

System: propyl methanoate + decane; phases: Liquid, Gas
Fixed: Pressure, kPa = 101.32
Property: Boiling temperature at pressure P, K (Liquid); method: Ebulliometric method (Recirculating still)
Mole fraction of propyl methanoate	Boiling temperature at pressure P, K	uncertainty
0	446.93	.05
.0319	435.96	.05
.0462	430.26	.05
.0746	419.85	.05
.1121	408.45	.05
.1545	398.47	.05
.1952	391.4	.05
.2593	382.69	.05
.3094	378.05	.05
.3539	374.47	.05
.4277	370.7	.05
.5022	367.22	.05
.5421	365.85	.05
.565	364.76	.05
.6345	362.44	.05
.7009	361.1	.05
.7408	360.66	.05
.7808	359.72	.05
.8131	359	.05
.8822	357.09	.05
.9155	356	.05
.9436	355.3	.05
.965	354.75	.05
.9797	354.35	.05
.989	354.05	.05
.9978	353.76	.05
1	353.92	.05

System: propyl methanoate + decane; phases: Gas, Liquid
Fixed: Pressure, kPa = 101.32
Property: Mole fraction of propyl methanoate (Gas); method: Density calibration data
Mole fraction of propyl methanoate	Mole fraction of propyl methanoate	uncertainty
0	0	.002
.0319	.2575	.002
.0462	.371	.002
.0746	.5462	.002
.1121	.6904	.002
.1545	.7836	.002
.1952	.836	.002
.2593	.8892	.002
.3094	.9108	.002
.3539	.9268	.002
.4277	.9421	.002
.5022	.9551	.002
.5421	.9597	.002
.565	.9632	.002
.6345	.9707	.002
.7009	.9748	.002
.7408	.9759	.002
.7808	.9783	.002
.8131	.9803	.002
.8822	.9847	.002
.9155	.9874	.002
.9436	.9911	.002
.965	.994	.002
.9797	.9956	.002
.989	.9967	.002
.9978	.9993	.002
1	1	.002

System: propyl methanoate + decane; phases: Liquid, Gas
Fixed: Mole fraction of propyl methanoate = 0
Property: Activity coefficient of propyl methanoate (Liquid); method: Derived
Pressure, kPa	Activity coefficient of propyl methanoate	uncertainty
101.32	1.32	

System: propyl methanoate + decane; phases: Liquid, Gas
Fixed: Mole fraction of decane = 0
Property: Activity coefficient of decane (Liquid); method: Derived
Pressure, kPa	Activity coefficient of decane	uncertainty
101.32	6.72	

System: decane + butyl methanoate; phases: Liquid
Fixed: Pressure, kPa = 101.32
Property: Excess molar enthalpy (molar enthalpy of mixing), kJ/mol (Liquid); method: Calvet calorimetry
Temperature, K	Mole fraction of butyl methanoate	Excess molar enthalpy (molar enthalpy of mixing), kJ/mol	uncertainty
291.15	.0883	.471	.002
291.15	.1638	.771	.002
291.15	.2402	1.017	.002
291.15	.3191	1.202	.002
291.15	.3928	1.319	.002
291.15	.4529	1.374	.002
291.15	.5186	1.386	.002
291.15	.57	1.363	.002
291.15	.5814	1.347	.002
291.15	.611	1.324	.002
291.15	.6591	1.262	.002
291.15	.7085	1.15	.002
291.15	.7591	1.02	.002
291.15	.811	.865	.002
291.15	.8617	.678	.002
291.15	.9107	.465	.002
291.15	.9571	.24	.002
318.15	.1089	.521	.002
318.15	.2303	.989	.002
318.15	.3519	1.311	.002
318.15	.4595	1.442	.002
318.15	.5353	1.457	.002
318.15	.5931	1.412	.002
318.15	.6414	1.334	.002
318.15	.7023	1.209	.002
318.15	.7704	1.021	.002
318.15	.8416	.767	.002
318.15	.9017	.495	.002
318.15	.961	.24	.002

System: decane + butyl methanoate; phases: Liquid
Fixed: Pressure, kPa = 101.32
Property: Mass density, kg/m3 (Liquid); method: Vibrating tube method
Temperature, K	Mole fraction of butyl methanoate	Mass density, kg/m3	uncertainty
291.15	0	731.24	.04
291.15	.036	734.46	.04
291.15	.0912	739.3	.04
291.15	.1417	744.12	.04
291.15	.1926	748.99	.04
291.15	.2446	754.61	.04
291.15	.3002	760.95	.04
291.15	.3984	773.44	.04
291.15	.4994	787.95	.04
291.15	.5988	804.04	.04
291.15	.6976	822.2	.04
291.15	.7487	832.36	.04
291.15	.7895	841.15	.04
291.15	.852	855.74	.04
291.15	.8994	867.64	.04
291.15	.9498	881.15	.04
291.15	1	896	.04
298.15	0	726.26	.04
298.15	.0497	730.42	.04
298.15	.0975	734.48	.04
298.15	.1471	739.16	.04
298.15	.1909	743.43	.04
298.15	.2423	748.85	.04
298.15	.2941	754.68	.04
298.15	.3856	765.96	.04
298.15	.4923	780.87	.04
298.15	.5884	796.04	.04
298.15	.6947	814.97	.04
298.15	.7484	825.6	.04
298.15	.7926	835.06	.04
298.15	.8669	852.05	.04
298.15	.8982	860.1	.04
298.15	.9463	872.69	.04
298.15	1	888.66	.04
308.15	0	717.9	.04
308.15	.0257	720.58	.04
308.15	.0873	725.9	.04
308.15	.1414	730.67	.04
308.15	.1894	735.3	.04
308.15	.2354	740	.04
308.15	.2945	746.5	.04
308.15	.3957	758.7	.04
308.15	.503	773.4	.04
308.15	.5983	788.2	.04
308.15	.6557	798.1	.04
308.15	.704	807	.04
308.15	.7997	826.5	.04
308.15	.8846	846.3	.04
308.15	.9719	869.5	.04
308.15	1	878.24	.04
318.15	0	710.99	.04
318.15	.0595	715.56	.04
318.15	.1047	719.25	.04
318.15	.1832	726.5	.04
318.15	.6566	788.22	.04
318.15	.7096	797.9	.04
318.15	.7562	807.07	.04
318.15	.8057	817.66	.04
318.15	.2736	735.55	.04
318.15	.3418	743.15	.04
318.15	.4274	753.61	.04
318.15	.4825	760.98	.04
318.15	.5424	769.71	.04
318.15	.6001	778.67	.04
318.15	.8419	825.85	.04
318.15	.8877	836.56	.04
318.15	.9277	846.79	.04
318.15	.9669	857.26	.04
318.15	1	867.21	.04

System: decane + butyl methanoate; phases: Liquid
Fixed: Pressure, kPa = 101.32
Property: Excess molar volume, m3/mol (Liquid); method: Calculated with densities of this investigation
Temperature, K	Mole fraction of butyl methanoate	Excess molar volume, m3/mol	uncertainty
291.15	0	0	.000000002
291.15	.036	.000000123	.000000002
291.15	.0912	.000000315	.000000002
291.15	.1417	.000000445	.000000002
291.15	.1926	.000000624	.000000002
291.15	.2446	.000000708	.000000002
291.15	.3002	.00000079	.000000002
291.15	.3984	.00000084	.000000002
291.15	.4994	.000000825	.000000002
291.15	.5988	.000000765	.000000002
291.15	.6976	.000000651	.000000002
291.15	.7487	.000000608	.000000002
291.15	.7895	.000000537	.000000002
291.15	.852	.0000004	.000000002
291.15	.8994	.000000293	.000000002
291.15	.9498	.000000178	.000000002
291.15	1	0	.000000002
298.15	0	0	.000000002
298.15	.0497	.000000174	.000000002
298.15	.0975	.00000037	.000000002
298.15	.1471	.000000501	.000000002
298.15	.1909	.000000621	.000000002
298.15	.2423	.000000717	.000000002
298.15	.2941	.000000788	.000000002
298.15	.3856	.000000856	.000000002
298.15	.4923	.000000851	.000000002
298.15	.5884	.000000795	.000000002
298.15	.6947	.000000703	.000000002
298.15	.7484	.000000634	.000000002
298.15	.7926	.000000549	.000000002
298.15	.8669	.000000425	.000000002
298.15	.8982	.000000319	.000000002
298.15	.9463	.000000219	.000000002
298.15	1	0	.000000002
308.15	0	0	.000000002
308.15	.0257	.000000124	.000000002
308.15	.0873	.000000311	.000000002
308.15	.1414	.00000051	.000000002
308.15	.1894	.000000633	.000000002
308.15	.2354	.000000732	.000000002
308.15	.2945	.000000819	.000000002
308.15	.3957	.000000919	.000000002
308.15	.503	.000000948	.000000002
308.15	.5983	.000000913	.000000002
308.15	.6557	.000000853	.000000002
308.15	.704	.000000794	.000000002
308.15	.7997	.000000628	.000000002
308.15	.8846	.000000419	.000000002
308.15	.9719	.000000151	.000000002
308.15	1	0	.000000002
318.15	0	0	.000000002
318.15	.0595	.000000265	.000000002
318.15	.1047	.000000463	.000000002
318.15	.1832	.000000677	.000000002
318.15	.6566	.00000102	.000000002
318.15	.7096	.000000934	.000000002
318.15	.7562	.000000837	.000000002
318.15	.8057	.000000687	.000000002
318.15	.2736	.000000903	.000000002
318.15	.3418	.000001012	.000000002
318.15	.4274	.000001102	.000000002
318.15	.4825	.000001126	.000000002
318.15	.5424	.000001106	.000000002
318.15	.6001	.000001081	.000000002
318.15	.8419	.000000575	.000000002
318.15	.8877	.00000047	.000000002
318.15	.9277	.000000329	.000000002
318.15	.9669	.000000206	.000000002
318.15	1	0	.000000002

System: decane + butyl methanoate; phases: Liquid, Gas
Fixed: Pressure, kPa = 101.32
Property: Boiling temperature at pressure P, K (Liquid); method: Ebulliometric method (Recirculating still)
Mole fraction of butyl methanoate	Boiling temperature at pressure P, K	uncertainty
0	446.93	.04
.0108	443.75	.04
.0135	442.3	.04
.0284	439.32	.04
.0452	435.55	.04
.0824	428.68	.04
.103	425.63	.04
.1341	421.6	.04
.1699	416.85	.04
.2199	411.54	.04
.249	409.09	.04
.3239	402.67	.04
.3582	400.78	.04
.4074	397.95	.04
.4514	395.55	.04
.5337	392.29	.04
.5882	390.07	.04
.6377	389.05	.04
.6932	387.55	.04
.7327	386.52	.04
.7785	385.6	.04
.8203	384.32	.04
.8539	383.45	.04
.8896	382.61	.04
.939	381.37	.04
.9603	380.85	.04
.9769	380.39	.04
1	380.13	.04

System: decane + butyl methanoate; phases: Gas, Liquid
Fixed: Pressure, kPa = 101.32
Property: Mole fraction of decane (Gas); method: Density calibration data
Mole fraction of butyl methanoate	Mole fraction of decane	uncertainty
0	0	.002
.0108	.0847	.002
.0135	.1204	.002
.0284	.1965	.002
.0452	.2843	.002
.0824	.429	.002
.103	.4856	.002
.1341	.5526	.002
.1699	.6254	.002
.2199	.6962	.002
.249	.7236	.002
.3239	.7922	.002
.3582	.8094	.002
.4074	.8354	.002
.4514	.8554	.002
.5337	.8816	.002
.5882	.8999	.002
.6377	.9076	.002
.6932	.9211	.002
.7327	.93	.002
.7785	.9413	.002
.8203	.9527	.002
.8539	.9622	.002
.8896	.9719	.002
.939	.9844	.002
.9603	.9899	.002
.9769	.9939	.002
1	1	.002

System: decane + butyl methanoate; phases: Liquid, Gas
Fixed: Pressure, kPa = 101.32
Property: Boiling temperature at pressure P, K (Liquid); method: Ebulliometric method (Recirculating still)
Mole fraction of butyl methanoate	Boiling temperature at pressure P, K	uncertainty
0	446.93	.05
.0108	443.75	.05
.0284	439.32	.05
.0452	435.55	.05
.0824	428.68	.05
.103	425.63	.05
.1341	421.6	.05
.1699	416.85	.05
.2199	411.54	.05
.249	409.09	.05
.3239	402.67	.05
.3582	400.78	.05
.4074	397.95	.05
.4514	395.55	.05
.5337	392.29	.05
.5882	390.07	.05
.6377	389.05	.05
.6932	387.55	.05
.7327	386.52	.05
.7785	385.6	.05
.8203	384.32	.05
.8539	383.45	.05
.8896	382.61	.05
.939	381.37	.05
.9603	380.85	.05
.9769	380.39	.05
1	380.13	.05

System: decane + butyl methanoate; phases: Gas, Liquid
Fixed: Pressure, kPa = 101.32
Property: Mole fraction of decane (Gas); method: Density calibration data
Mole fraction of butyl methanoate	Mole fraction of decane	uncertainty
0	0	.002
.0108	.0847	.002
.0284	.1965	.002
.0452	.2843	.002
.0824	.429	.002
.103	.4856	.002
.1341	.5526	.002
.1699	.6254	.002
.2199	.6962	.002
.249	.7236	.002
.3239	.7922	.002
.3582	.8094	.002
.4074	.8354	.002
.4514	.8554	.002
.5337	.8816	.002
.5882	.8999	.002
.6377	.9076	.002
.6932	.9211	.002
.7327	.93	.002
.7785	.9413	.002
.8203	.9527	.002
.8539	.9622	.002
.8896	.9719	.002
.939	.9844	.002
.9603	.9899	.002
.9769	.9939	.002
1	1	.002

System: decane + butyl methanoate; phases: Liquid, Gas
Fixed: Mass fraction of decane = 0
Property: Activity coefficient of decane (Liquid); method: Derived
Pressure, kPa	Activity coefficient of decane	uncertainty
101.32	1.95	

System: decane + butyl methanoate; phases: Liquid, Gas
Fixed: Mole fraction of butyl methanoate = 0
Property: Activity coefficient of butyl methanoate (Liquid); method: Derivied
Pressure, kPa	Activity coefficient of butyl methanoate	uncertainty
101.32	1.71	
