Measured thermophysical data. Thermodynamic models for determination of the solubility of omeprazole sulfide in (ethanol + ethyl acetate) binary solvent mixtures
Source: Fluid Phase Equilib., 2015, 10.1016/j.fluid.2015.07.038
Compound 1: Omeprazole sulfide, C17H19N3O2S, purity 99.5%
Compound 2: ethanol, C2H6O, purity 99.7%
Compound 3: ethyl acetate, C4H8O2, purity 99.5%

System: Omeprazole sulfide; phases: Crystal, Liquid, Air at 1 atmosphere
Property: Normal melting temperature, K (Crystal); method: DSC/DTA
Normal melting temperature, K	uncertainty
392.15	

System: ethanol + ethyl acetate + Omeprazole sulfide; phases: Liquid, Crystal
Fixed: Pressure, kPa = 101.3
Property: Mole fraction of Omeprazole sulfide (Liquid); method: gravimetric after drying solvent
Temperature, K	Solvent: Mole fraction of ethanol	Mole fraction of Omeprazole sulfide	uncertainty
277.65	0	.0029	.03
277.65	.252	.00356	.03
277.65	.45	.00429	.03
277.65	.61	.00555	.03
277.65	.742	.00727	.03
277.65	.852	.00906	.03
277.65	.945	.01076	.03
277.65	1	.01168	.03
282.65	0	.00371	.03
282.65	.252	.00427	.03
282.65	.45	.00571	.03
282.65	.61	.00751	.03
282.65	.742	.00969	.03
282.65	.852	.01178	.03
282.65	.945	.01433	.03
282.65	1	.01678	.03
288.15	0	.00483	.03
288.15	.252	.00593	.03
288.15	.45	.00795	.03
288.15	.61	.01044	.03
288.15	.742	.01332	.03
288.15	.852	.01679	.03
288.15	.945	.0209	.03
288.15	1	.02444	.03
293.15	0	.00614	.03
293.15	.252	.00763	.03
293.15	.45	.01058	.03
293.15	.61	.01364	.03
293.15	.742	.01709	.03
293.15	.852	.02135	.03
293.15	.945	.02758	.03
293.15	1	.03374	.03
298.05	0	.00773	.03
298.05	.252	.00969	.03
298.05	.45	.0134	.03
298.05	.61	.01724	.03
298.05	.742	.02121	.03
298.05	.852	.02672	.03
298.05	.945	.03585	.03
298.05	1	.04549	.03
302.15	0	.00935	.03
302.15	.252	.01135	.03
302.15	.45	.01591	.03
302.15	.61	.02192	.03
302.15	.742	.02953	.03
302.15	.852	.03741	.03
302.15	.945	.0474	.03
302.15	1	.05771	.03
307.65	0	.01204	.03
307.65	.252	.01531	.03
307.65	.45	.02137	.03
307.65	.61	.02912	.03
307.65	.742	.03849	.03
307.65	.852	.05022	.03
307.65	.945	.06459	.03
307.65	1	.07811	.03
313.15	0	.01545	.03
313.15	.252	.01983	.03
313.15	.45	.02774	.03
313.15	.61	.0378	.03
313.15	.742	.05049	.03
313.15	.852	.06615	.03
313.15	.945	.08549	.03
313.15	1	.10385	.03
317.65	0	.0189	.03
317.65	.252	.02435	.03
317.65	.45	.03422	.03
317.65	.61	.047	.03
317.65	.742	.06264	.03
317.65	.852	.08228	.03
317.65	.945	.10657	.03
317.65	1	.12946	.03
322.15	0	.02306	.03
322.15	.252	.02978	.03
322.15	.45	.04193	.03
322.15	.61	.05766	.03
322.15	.742	.07694	.03
322.15	.852	.10122	.03
322.15	.945	.13126	.03
322.15	1	.15966	.03
327.65	0	.02933	.03
327.65	.252	.03788	.03
327.65	.45	.05334	.03
327.65	.61	.07342	.03
327.65	.742	.09801	.03
327.65	.852	.12894	.03
327.65	.945	.1677	.03
327.65	1	.20345	.03
333.15	0	.03718	.03
333.15	.252	.04605	.03
333.15	.45	.06576	.03
333.15	.61	.09212	.03
333.15	.742	.12598	.03
333.15	.852	.16189	.03
333.15	.945	.20756	.03
333.15	1	.25556	.03
