Measured thermophysical data. Molar heat capacities of aqueous 2-amino-2-ethyl-1,3-propanediol solutions and their ternary mixtures containing piperazine or lithium salts
Source: Fluid Phase Equilib., 2014, 10.1016/j.fluid.2013.12.017
Compound 1: 2-amino-2-ethyl-1,3-propanediol, C5H13NO2, purity 98%
Compound 2: piperazine, C4H10N2, purity 99%
Compound 3: lithium bromide, BrLi, purity 99%
Compound 4: lithium chloride, ClLi, purity 99.9%
Compound 5: water, H2O

System: 2-amino-2-ethyl-1,3-propanediol; phases: Liquid
Property: Molar heat capacity at constant pressure, J/K/mol (Liquid); method: Small sample (50 mg) DSC
Temperature, K	Pressure, kPa	Molar heat capacity at constant pressure, J/K/mol	uncertainty
303.15	101	367.5	7.35
308.15	101	370.5	7.41
313.15	101	374.1	7.482
318.15	101	378	7.56
323.15	101	381.5	7.63
328.15	101	385.8	7.716
333.15	101	389.9	7.798
338.15	101	393.9	7.878
343.15	101	398.6	7.972
348.15	101	403.1	8.062
353.15	101	408.2	8.164

System: 2-amino-2-ethyl-1,3-propanediol + water; phases: Liquid
Fixed: Pressure, kPa = 101
Property: Molar heat capacity at constant pressure, J/K/mol (Liquid); method: Small sample (50 mg) DSC
Temperature, K	Mole fraction of 2-amino-2-ethyl-1,3-propanediol	Molar heat capacity at constant pressure, J/K/mol	uncertainty
303.15	.1494	107.2	2.144
308.15	.1494	108.6	2.172
313.15	.1494	110	2.2
318.15	.1494	111.3	2.226
323.15	.1494	112.7	2.254
328.15	.1494	113.8	2.276
333.15	.1494	115.5	2.31
338.15	.1494	116.8	2.336
343.15	.1494	118.3	2.366
348.15	.1494	119.6	2.392
353.15	.1494	121.3	2.426
303.15	.3002	141.9	2.838
308.15	.3002	143.7	2.874
313.15	.3002	145.5	2.91
318.15	.3002	147.3	2.946
323.15	.3002	149.1	2.982
328.15	.3002	151	3.02
333.15	.3002	152.8	3.056
338.15	.3002	154.6	3.092
343.15	.3002	156.5	3.13
348.15	.3002	158.3	3.166
353.15	.3002	160.2	3.204
303.15	.4502	178.1	3.562
308.15	.4502	180.3	3.606
313.15	.4502	182.5	3.65
318.15	.4502	184.7	3.694
323.15	.4502	186.9	3.738
328.15	.4502	189.1	3.782
333.15	.4502	191.3	3.826
338.15	.4502	193.5	3.87
343.15	.4502	195.7	3.914
348.15	.4502	197.9	3.958
353.15	.4502	200.2	4.004
303.15	.5992	216.5	4.33
308.15	.5992	219.2	4.384
313.15	.5992	221.9	4.438
318.15	.5992	224.7	4.494
323.15	.5992	227.4	4.548
328.15	.5992	230.1	4.602
333.15	.5992	232.8	4.656
338.15	.5992	235.6	4.712
343.15	.5992	238.3	4.766
348.15	.5992	241	4.82
353.15	.5992	243.8	4.876
303.15	.7505	260.2	5.204
308.15	.7505	263.4	5.268
313.15	.7505	266.6	5.332
318.15	.7505	269.9	5.398
323.15	.7505	273.1	5.462
328.15	.7505	276.4	5.528
333.15	.7505	279.6	5.592
338.15	.7505	282.8	5.656
343.15	.7505	286.1	5.722
348.15	.7505	289.3	5.786
353.15	.7505	292.6	5.852
303.15	.8989	314.7	6.294
308.15	.8989	318.5	6.37
313.15	.8989	322.3	6.446
318.15	.8989	325.9	6.518
323.15	.8989	329.6	6.592
328.15	.8989	333.3	6.666
333.15	.8989	337	6.74
338.15	.8989	340.7	6.814
343.15	.8989	344.4	6.888
348.15	.8989	348.3	6.966
353.15	.8989	352	7.04
303.15	1	367.5	7.35
308.15	1	370.5	7.41
313.15	1	374.1	7.482
318.15	1	378	7.56
323.15	1	381.5	7.63
328.15	1	385.8	7.716
333.15	1	389.9	7.798
338.15	1	393.9	7.878
343.15	1	398.6	7.972
348.15	1	403.1	8.062
353.15	1	408.2	8.164

System: piperazine + 2-amino-2-ethyl-1,3-propanediol + water; phases: Liquid
Fixed: Pressure, kPa = 101
Property: Molar heat capacity at constant pressure, J/K/mol (Liquid); method: Small sample (50 mg) DSC
Temperature, K	Mass fraction of piperazine	Mass fraction of 2-amino-2-ethyl-1,3-propanediol	Molar heat capacity at constant pressure, J/K/mol	uncertainty
303.15	.163	.225	105.6	2.112
308.15	.163	.225	106.9	2.138
313.15	.163	.225	108.1	2.162
318.15	.163	.225	109.4	2.188
323.15	.163	.225	110.6	2.212
328.15	.163	.225	111.9	2.238
333.15	.163	.225	113.1	2.262
338.15	.163	.225	114.4	2.288
343.15	.163	.225	115.7	2.314
348.15	.163	.225	117	2.34
353.15	.163	.225	118.3	2.366
303.15	.247	.341	121.1	2.422
308.15	.247	.341	122.7	2.454
313.15	.247	.341	124.4	2.488
318.15	.247	.341	126	2.52
323.15	.247	.341	127.6	2.552
328.15	.247	.341	129.3	2.586
333.15	.247	.341	130.9	2.618
338.15	.247	.341	132.6	2.652
343.15	.247	.341	134.2	2.684
348.15	.247	.341	135.9	2.718
353.15	.247	.341	137.6	2.752
303.15	.298	.412	137	2.74
308.15	.298	.412	138.9	2.778
313.15	.298	.412	140.8	2.816
318.15	.298	.412	142.7	2.854
323.15	.298	.412	144.6	2.892
328.15	.298	.412	146.5	2.93
333.15	.298	.412	148.4	2.968
338.15	.298	.412	150.3	3.006
343.15	.298	.412	152.3	3.046
348.15	.298	.412	154.2	3.084
353.15	.298	.412	156.1	3.122
303.15	.333	.459	154.1	3.082
308.15	.333	.459	156.4	3.128
313.15	.333	.459	158.7	3.174
318.15	.333	.459	160.9	3.218
323.15	.333	.459	163.2	3.264
328.15	.333	.459	165.5	3.31
333.15	.333	.459	167.8	3.356
338.15	.333	.459	170.1	3.402
343.15	.333	.459	172.4	3.448
348.15	.333	.459	174.7	3.494
353.15	.333	.459	177	3.54
303.15	.357	.494	175.2	3.504
308.15	.357	.494	178.1	3.562
313.15	.357	.494	181	3.62
318.15	.357	.494	183.8	3.676
323.15	.357	.494	186.7	3.734
328.15	.357	.494	189.6	3.792
333.15	.357	.494	192.4	3.848
338.15	.357	.494	195.3	3.906
343.15	.357	.494	198.2	3.964
348.15	.357	.494	201.1	4.022
353.15	.357	.494	204	4.08
303.15	.41	.567	199	3.98
308.15	.41	.567	202.4	4.048
313.15	.41	.567	206	4.12
318.15	.41	.567	209.6	4.192
323.15	.41	.567	213.2	4.264
328.15	.41	.567	216.9	4.338
333.15	.41	.567	220.7	4.414
338.15	.41	.567	224.4	4.488
343.15	.41	.567	228.3	4.566
348.15	.41	.567	232.3	4.646
353.15	.41	.567	236	4.72

System: 2-amino-2-ethyl-1,3-propanediol + lithium chloride + water; phases: Liquid
Fixed: Pressure, kPa = 101
Property: Molar heat capacity at constant pressure, J/K/mol (Liquid); method: Small sample (50 mg) DSC
Temperature, K	Mass fraction of lithium chloride	Mass fraction of 2-amino-2-ethyl-1,3-propanediol	Molar heat capacity at constant pressure, J/K/mol	uncertainty
303.15	.087	.245	79.9	1.598
308.15	.087	.245	80.6	1.612
313.15	.087	.245	81.3	1.626
318.15	.087	.245	82.1	1.642
323.15	.087	.245	82.8	1.656
328.15	.087	.245	83.6	1.672
333.15	.087	.245	84.3	1.686
338.15	.087	.245	85	1.7
343.15	.087	.245	85.8	1.716
348.15	.087	.245	86.6	1.732
353.15	.087	.245	87.3	1.746
303.15	.139	.39	90.2	1.804
308.15	.139	.39	90.9	1.818
313.15	.139	.39	91.6	1.832
318.15	.139	.39	92.4	1.848
323.15	.139	.39	93.1	1.862
328.15	.139	.39	93.9	1.878
333.15	.139	.39	94.7	1.894
338.15	.139	.39	95.4	1.908
343.15	.139	.39	96	1.92
348.15	.139	.39	96.8	1.936
353.15	.139	.39	97.6	1.952
303.15	.173	.485	101.1	2.022
308.15	.173	.485	102.6	2.052
313.15	.173	.485	103.2	2.064
318.15	.173	.485	103.6	2.072
323.15	.173	.485	104	2.08
328.15	.173	.485	104.6	2.092
333.15	.173	.485	105.1	2.102
338.15	.173	.485	105.6	2.112
343.15	.173	.485	106.3	2.126
348.15	.173	.485	107	2.14
353.15	.173	.485	107.7	2.154
303.15	.196	.55	112.3	2.246
308.15	.196	.55	113	2.26
313.15	.196	.55	114	2.28
318.15	.196	.55	114.9	2.298
323.15	.196	.55	115.8	2.316
328.15	.196	.55	116.6	2.332
333.15	.196	.55	117.8	2.356
338.15	.196	.55	118.6	2.372
343.15	.196	.55	119.5	2.39
348.15	.196	.55	120.3	2.406
353.15	.196	.55	121.1	2.422
303.15	.214	.604	127	2.54
308.15	.214	.604	128	2.56
313.15	.214	.604	128.8	2.576
318.15	.214	.604	129.8	2.596
323.15	.214	.604	130.8	2.616
328.15	.214	.604	131.9	2.638
333.15	.214	.604	132.7	2.654
338.15	.214	.604	133.6	2.672
343.15	.214	.604	134.7	2.694
348.15	.214	.604	135.7	2.714
353.15	.214	.604	136.8	2.736

System: 2-amino-2-ethyl-1,3-propanediol + lithium bromide + water; phases: Liquid
Fixed: Pressure, kPa = 101
Property: Molar heat capacity at constant pressure, J/K/mol (Liquid); method: Small sample (50 mg) DSC
Temperature, K	Mass fraction of lithium bromide	Mass fraction of 2-amino-2-ethyl-1,3-propanediol	Molar heat capacity at constant pressure, J/K/mol	uncertainty
303.15	.204	.56	128.1	2.562
308.15	.204	.56	129.6	2.592
313.15	.204	.56	131	2.62
318.15	.204	.56	132.5	2.65
323.15	.204	.56	134	2.68
328.15	.204	.56	135.5	2.71
333.15	.204	.56	137	2.74
338.15	.204	.56	138.6	2.772
343.15	.204	.56	140.1	2.802
348.15	.204	.56	141.6	2.832
353.15	.204	.56	143.1	2.862
303.15	.231	.502	118.8	2.376
308.15	.231	.502	120.1	2.402
313.15	.231	.502	121.4	2.428
318.15	.231	.502	122.7	2.454
323.15	.231	.502	124	2.48
328.15	.231	.502	125.3	2.506
333.15	.231	.502	126.6	2.532
338.15	.231	.502	127.9	2.558
343.15	.231	.502	129.2	2.584
348.15	.231	.502	130.5	2.61
353.15	.231	.502	131.9	2.638
303.15	.277	.403	106.6	2.132
308.15	.277	.403	107.5	2.15
313.15	.277	.403	108.4	2.168
318.15	.277	.403	109.4	2.188
323.15	.277	.403	110.4	2.208
328.15	.277	.403	111.4	2.228
333.15	.277	.403	112.4	2.248
338.15	.277	.403	113.3	2.266
343.15	.277	.403	114.3	2.286
348.15	.277	.403	115.3	2.306
353.15	.277	.403	116.3	2.326
303.15	.326	.298	96	1.92
308.15	.326	.298	96.6	1.932
313.15	.326	.298	97.2	1.944
318.15	.326	.298	97.8	1.956
323.15	.326	.298	98.4	1.968
328.15	.326	.298	99	1.98
333.15	.326	.298	99.6	1.992
338.15	.326	.298	100.2	2.004
343.15	.326	.298	100.9	2.018
348.15	.326	.298	101.5	2.03
353.15	.326	.298	102.2	2.044
303.15	.353	.24	90.1	1.802
308.15	.353	.24	90.7	1.814
313.15	.353	.24	91.2	1.824
318.15	.353	.24	91.8	1.836
323.15	.353	.24	92.2	1.844
328.15	.353	.24	92.7	1.854
333.15	.353	.24	93.3	1.866
338.15	.353	.24	93.8	1.876
343.15	.353	.24	94.2	1.884
348.15	.353	.24	94.8	1.896
353.15	.353	.24	95.3	1.906
