Measured thermophysical data. Phase equilibria of (water + levunilic acid + alcohol) ternary systems
Source: Fluid Phase Equilib., 2008, 10.1016/j.fluid.2008.08.004
Compound 1: water, H2O
Compound 2: 3-methyl-1-butanol, C5H12O, purity 98%
Compound 3: 1-hexanol, C6H14O, purity 98%
Compound 4: 1-decanol, C10H22O, purity 99%
Compound 5: 4-oxopentanoic acid, C5H8O3, purity 98%

System: 3-methyl-1-butanol; phases: Liquid, Gas
Property: Normal boiling temperature, K (Liquid); method: Fischer boiling apparatus
Normal boiling temperature, K	uncertainty
404.5	

System: 3-methyl-1-butanol; phases: Liquid
Property: Refractive index (Na D-line) (Liquid); method: Standard Abbe refractometry
Temperature, K	Pressure, kPa	Refractive index (Na D-line)	uncertainty
293.15	101.325	1.4075	

System: 3-methyl-1-butanol; phases: Liquid
Property: Mass density, kg/m3 (Liquid); method: Vibrating tube method
Temperature, K	Pressure, kPa	Mass density, kg/m3	uncertainty
293.15	101.325	808.4	

System: 1-hexanol; phases: Liquid, Gas
Property: Normal boiling temperature, K (Liquid); method: Fischer boiling apparatus
Normal boiling temperature, K	uncertainty
430.5	

System: 1-hexanol; phases: Liquid
Property: Refractive index (Na D-line) (Liquid); method: Standard Abbe refractometry
Temperature, K	Pressure, kPa	Refractive index (Na D-line)	uncertainty
293.15	101.325	1.4177	

System: 1-hexanol; phases: Liquid
Property: Mass density, kg/m3 (Liquid); method: Vibrating tube method
Temperature, K	Pressure, kPa	Mass density, kg/m3	uncertainty
293.15	101.325	813.5	

System: 1-decanol; phases: Liquid, Gas
Property: Normal boiling temperature, K (Liquid); method: Fischer boiling apparatus
Normal boiling temperature, K	uncertainty
503.7	

System: 1-decanol; phases: Liquid
Property: Refractive index (Na D-line) (Liquid); method: Standard Abbe refractometry
Temperature, K	Pressure, kPa	Refractive index (Na D-line)	uncertainty
293.15	101.325	1.4373	

System: 1-decanol; phases: Liquid
Property: Mass density, kg/m3 (Liquid); method: Vibrating tube method
Temperature, K	Pressure, kPa	Mass density, kg/m3	uncertainty
293.15	101.325	829.5	

System: 4-oxopentanoic acid; phases: Liquid, Gas
Property: Normal boiling temperature, K (Liquid); method: Fischer boiling apparatus
Normal boiling temperature, K	uncertainty
518.2	

System: 4-oxopentanoic acid; phases: Liquid
Property: Refractive index (Na D-line) (Liquid); method: Standard Abbe refractometry
Temperature, K	Pressure, kPa	Refractive index (Na D-line)	uncertainty
293.15	101.325	1.4395	

System: 4-oxopentanoic acid; phases: Liquid
Property: Mass density, kg/m3 (Liquid); method: Vibrating tube method
Temperature, K	Pressure, kPa	Mass density, kg/m3	uncertainty
293.15	101.325	1133.5	

System: 3-methyl-1-butanol + 4-oxopentanoic acid + water; phases: Liquid mixture 1, Liquid mixture 2
Fixed: Temperature, K = 298.15
Fixed: Pressure, kPa = 101.3
Property: Mass fraction of 4-oxopentanoic acid (Liquid mixture 1); method: Chromatography
Property: Mass fraction of 4-oxopentanoic acid (Liquid mixture 2); method: Chromatography
Property: Mass fraction of water (Liquid mixture 2); method: Chromatography
Mass fraction of water	Mass fraction of 4-oxopentanoic acid	uncertainty	Mass fraction of 4-oxopentanoic acid	uncertainty	Mass fraction of water	uncertainty
.9136	.0654		.0613		.112	
.8467	.1333		.1209		.138	
.7818	.1872		.1842		.141	
.6951	.2529		.249		.172	
.571	.324		.3069		.235	

System: 3-methyl-1-butanol + 4-oxopentanoic acid + water; phases: Liquid mixture 1, Liquid mixture 2
Fixed: Pressure, kPa = 101.3
Fixed: Temperature, K = 298.15
Property: Mass fraction of 4-oxopentanoic acid (Liquid mixture 1); method: Titration method
Mass fraction of water	Mass fraction of 4-oxopentanoic acid	uncertainty
.0872	0	
.1113	.062	
.1464	.1405	
.168	.2118	
.1823	.2488	
.2175	.2939	
.276	.3353	
.3406	.3437	
.3983	.3455	
.5026	.3394	
.6169	.2991	
.6933	.2493	
.7598	.1938	
.8261	.1442	
.9119	.056	
.973	0	

System: 1-hexanol + 4-oxopentanoic acid + water; phases: Liquid mixture 1, Liquid mixture 2
Fixed: Temperature, K = 298.15
Fixed: Pressure, kPa = 101.3
Property: Mass fraction of 4-oxopentanoic acid (Liquid mixture 1); method: Chromatography
Property: Mass fraction of 4-oxopentanoic acid (Liquid mixture 2); method: Chromatography
Property: Mass fraction of water (Liquid mixture 2); method: Chromatography
Mass fraction of water	Mass fraction of 4-oxopentanoic acid	uncertainty	Mass fraction of 4-oxopentanoic acid	uncertainty	Mass fraction of water	uncertainty
.8797	.1183		.0767		.072	
.7808	.2162		.1392		.091	
.6934	.2946		.1776		.103	
.5745	.3835		.2845		.136	
.46447	.45753		.322		.164	

System: 1-hexanol + 4-oxopentanoic acid + water; phases: Liquid mixture 1, Liquid mixture 2
Fixed: Pressure, kPa = 101.3
Fixed: Temperature, K = 298.15
Property: Mass fraction of 4-oxopentanoic acid (Liquid mixture 1); method: Titration method
Mass fraction of water	Mass fraction of 4-oxopentanoic acid	uncertainty
.0512	0	
.0773	.082	
.1036	.1414	
.1131	.2043	
.1246	.2521	
.1528	.3085	
.1997	.3514	
.2562	.4145	
.2887	.4252	
.4761	.4428	
.6022	.3654	
.6711	.3082	
.7497	.2369	
.7939	.197	
.8829	.1098	
.943	.0542	
.9901	0	

System: 1-decanol + 4-oxopentanoic acid + water; phases: Liquid mixture 1, Liquid mixture 2
Fixed: Temperature, K = 298.15
Fixed: Pressure, kPa = 101.3
Property: Mass fraction of 4-oxopentanoic acid (Liquid mixture 1); method: Chromatography
Property: Mass fraction of 4-oxopentanoic acid (Liquid mixture 2); method: Chromatography
Property: Mass fraction of water (Liquid mixture 2); method: Chromatography
Mass fraction of water	Mass fraction of 4-oxopentanoic acid	uncertainty	Mass fraction of 4-oxopentanoic acid	uncertainty	Mass fraction of water	uncertainty
.7749	.2251		.059		.019	
.6342	.3658		.078		.02	
.5309	.4691		.1301		.0314	
.3945	.5735		.1412		.0355	
.2109	.6371		.175		.0434	

System: 1-decanol + 4-oxopentanoic acid + water; phases: Liquid mixture 1, Liquid mixture 2
Fixed: Pressure, kPa = 101.3
Fixed: Temperature, K = 298.15
Property: Mass fraction of 4-oxopentanoic acid (Liquid mixture 1); method: Titration method
Mass fraction of water	Mass fraction of 4-oxopentanoic acid	uncertainty
.0234	0	
.0284	.0554	
.047	.1476	
.0489	.135	
.0594	.3112	
.0693	.3962	
.0785	.5113	
.1135	.622	
.2647	.631	
.4915	.4998	
.582	.412	
.6936	.3037	
.7797	.2178	
.8232	.1746	
.8862	.112	
.94	.0584	
.9968	0	
