Measured thermophysical data. Phase behaviour and physico-chemical properties of the binary systems {1-ethyl-3-methylimidazolium thiocyanate, or 1-ethyl-3-methylimidazolium tosylate + water, or + an alcohol}
Source: Fluid Phase Equilib., 2010, 10.1016/j.fluid.2010.01.020
Compound 1: 1-ethyl-3-methylimidazolium thiocyanate, C7H11N3S
Compound 2: 1-ethyl-3-methylimidazolium tosylate, C13H18N2O3S
Compound 3: ethanol, C2H6O
Compound 4: 1-heptanol, C7H16O
Compound 5: 1-octanol, C8H18O
Compound 6: 1-nonanol, C9H20O
Compound 7: 1-decanol, C10H22O
Compound 8: water, H2O

System: 1-ethyl-3-methylimidazolium thiocyanate; phases: Crystal, Liquid, Air at 1 atmosphere
Property: Normal melting temperature, K (Crystal); method: Solid-Liquid Equilibrium
Normal melting temperature, K	uncertainty
326.6	.1

System: 1-ethyl-3-methylimidazolium tosylate; phases: Crystal, Liquid, Air at 1 atmosphere
Property: Normal melting temperature, K (Crystal); method: DSC/DTA
Normal melting temperature, K	uncertainty
322.3	.1

System: 1-ethyl-3-methylimidazolium tosylate; phases: Crystal, Liquid, Air at 1 atmosphere
Property: Molar enthalpy of transition or fusion, kJ/mol (Crystal); method: DSC/DTA
Molar enthalpy of transition or fusion, kJ/mol	uncertainty
20.49	.1

System: 1-heptanol + 1-ethyl-3-methylimidazolium thiocyanate; phases: Liquid mixture 1, Liquid mixture 2
Fixed: Pressure, kPa = 101
Property: Liquid-liquid equilibrium temperature, K (Liquid mixture 1); method: Visual observation
Mole fraction of 1-ethyl-3-methylimidazolium thiocyanate	Liquid-liquid equilibrium temperature, K	uncertainty
.9477	236.9	.1
.9149	248	.1
.8562	254.2	.1
.7817	256.9	.1
.6962	258.8	.1
.6179	259.7	.1
.5388	260.1	.1
.4671	260.5	.1
.3994	260.3	.1
.3165	258.9	.1
.2737	257.5	.1
.1998	254.5	.1
.1443	251.4	.1
.0997	248.5	.1
.0526	243.5	.1
.0207	240.1	.1

System: 1-octanol + 1-ethyl-3-methylimidazolium thiocyanate; phases: Liquid mixture 1, Liquid mixture 2
Fixed: Pressure, kPa = 101
Property: Liquid-liquid equilibrium temperature, K (Liquid mixture 1); method: Visual observation
Mole fraction of 1-ethyl-3-methylimidazolium thiocyanate	Liquid-liquid equilibrium temperature, K	uncertainty
.9593	267.5	.1
.9311	284.7	.1
.8877	290.1	.1
.8843	290.5	.1
.8643	291.6	.1
.8513	292.3	.1
.8365	293.1	.1
.831	293	.1
.8134	293.9	.1
.7918	294.5	.1
.7723	294.8	.1
.7608	295	.1
.7302	295.5	.1
.7242	295.6	.1
.7012	295.7	.1
.6856	295.8	.1
.6707	295.8	.1
.6403	295.8	.1
.6345	296	.1
.603	296	.1
.5957	296.1	.1
.5809	296	.1
.5711	296	.1
.5512	295.9	.1
.5508	295.8	.1
.5142	295.5	.1
.5084	295.6	.1
.474	294.5	.1
.4341	293.3	.1
.3811	291.7	.1
.3238	289.6	.1
.2759	287.6	.1
.1757	281.5	.1
.1227	276.8	.1
.0889	274.2	.1
.0708	271.6	.1
.0528	269.5	.1
.0384	268	.1
.0225	264.5	.1

System: 1-nonanol + 1-ethyl-3-methylimidazolium thiocyanate; phases: Liquid mixture 1, Liquid mixture 2
Fixed: Pressure, kPa = 101
Property: Liquid-liquid equilibrium temperature, K (Liquid mixture 1); method: Visual observation
Mole fraction of 1-ethyl-3-methylimidazolium thiocyanate	Liquid-liquid equilibrium temperature, K	uncertainty
.9653	288.6	.1
.9523	303.8	.1
.9362	315.5	.1
.921	325.1	.1
.6775	339	.1
.5992	338.8	.1
.5485	338.1	.1
.5229	337.5	.1
.3529	326.5	.1
.3113	322.8	.1
.2588	318.3	.1
.2033	311.8	.1
.8938	332.7	.1
.8665	334.7	.1
.8315	336.6	.1
.7943	337.8	.1
.7386	338.6	.1
.5036	337.2	.1
.4736	335.2	.1
.4497	334.4	.1
.4339	332.7	.1
.3926	328.8	.1
.1379	305.8	.1
.1014	300	.1
.0262	285.1	.1

System: 1-decanol + 1-ethyl-3-methylimidazolium thiocyanate; phases: Liquid mixture 1, Liquid mixture 2
Fixed: Pressure, kPa = 101
Property: Liquid-liquid equilibrium temperature, K (Liquid mixture 1); method: Visual observation
Mole fraction of 1-ethyl-3-methylimidazolium thiocyanate	Liquid-liquid equilibrium temperature, K	uncertainty
.9859	289.1	.1
.9714	325.2	.1
.9683	338.5	.1
.9586	354.8	.1
.9559	359.8	.1
.9497	366.9	.1
.9418	375.2	.1
.932	383.3	.1
.9206	389.8	.1
.9115	396.5	.1
.9032	401.5	.1
.8914	408.2	.1
.8739	413.1	.1

System: water + 1-ethyl-3-methylimidazolium tosylate; phases: Crystal, Crystal, Liquid, Air at 1 atmosphere
Fixed: Pressure, kPa = 101.325
Property: Eutectic temperature, K (Crystal); method: visual observation
Eutectic temperature, K	uncertainty
202.8	.1

System: water + 1-ethyl-3-methylimidazolium tosylate; phases: Crystal, Crystal, Liquid, Air at 1 atmosphere
Fixed: Pressure, kPa = 101.325
Property: Eutectic composition: mole fraction of 1-ethyl-3-methylimidazolium tosylate (Crystal); method: Derived from phase diagram analysis
Eutectic composition: mole fraction of 1-ethyl-3-methylimidazolium tosylate	uncertainty
.218	.001

System: water + 1-ethyl-3-methylimidazolium tosylate; phases: Liquid, Crystal
Fixed: Pressure, kPa = 101
Property: Solid-liquid equilibrium temperature, K (Liquid); method: Visual observation
Mole fraction of 1-ethyl-3-methylimidazolium tosylate	Solid-liquid equilibrium temperature, K	uncertainty
1	326.6	.1
.9602	325.1	.1
.919	323.6	.1
.8813	321.7	.1
.8337	319	.1
.7735	314.5	.1
.7161	309.1	.1
.6655	303.8	.1
.6245	298.8	.1
.5778	293.2	.1
.5436	287.5	.1
.5116	282.4	.1
.133	244.7	.1
.1141	251.4	.1
.0909	258.4	.1
.0667	264.1	.1
.0434	269.3	.1
.0216	271.8	.1
.0108	272.7	.1
0	273.1	.1

System: 1-heptanol + 1-ethyl-3-methylimidazolium tosylate; phases: Liquid, Crystal
Fixed: Pressure, kPa = 101
Property: Solid-liquid equilibrium temperature, K (Liquid); method: Visual observation
Mole fraction of 1-ethyl-3-methylimidazolium tosylate	Solid-liquid equilibrium temperature, K	uncertainty
1	326.6	.1
.9795	325.8	.1
.9454	324.8	.1
.9056	323.6	.1
.8674	322.5	.1
.8175	321	.1
.7616	319.3	.1
.7273	318.3	.1
.6872	317.2	.1
.6416	315.6	.1
.6026	313.8	.1
.564	311.6	.1
.5137	309.1	.1
.4708	306.5	.1
.4232	302.8	.1
.39	299.6	.1
.3539	295.7	.1
.3186	291.3	.1
.284	286.7	.1
.2548	281.9	.1
.2292	277.4	.1
.1895	271.1	.1
.1518	265	.1
.1203	259.6	.1
.0962	255.7	.1

System: 1-octanol + 1-ethyl-3-methylimidazolium tosylate; phases: Crystal, Crystal, Liquid, Air at 1 atmosphere
Fixed: Pressure, kPa = 101.325
Property: Eutectic temperature, K (Crystal); method: visual observation
Eutectic temperature, K	uncertainty
255.3	.1

System: 1-octanol + 1-ethyl-3-methylimidazolium tosylate; phases: Crystal, Crystal, Liquid, Air at 1 atmosphere
Fixed: Pressure, kPa = 101.325
Property: Eutectic composition: mole fraction of 1-ethyl-3-methylimidazolium tosylate (Crystal); method: Derived from phase diagram analysis
Eutectic composition: mole fraction of 1-ethyl-3-methylimidazolium tosylate	uncertainty
.086	.001

System: 1-octanol + 1-ethyl-3-methylimidazolium tosylate; phases: Liquid, Crystal
Fixed: Pressure, kPa = 101
Property: Solid-liquid equilibrium temperature, K (Liquid); method: Visual observation
Mole fraction of 1-ethyl-3-methylimidazolium tosylate	Solid-liquid equilibrium temperature, K	uncertainty
1	326.6	.1
.9829	326.3	.1
.9536	325.4	.1
.9155	324.5	.1
.879	323.2	.1
.8452	322.3	.1
.8112	321.1	.1
.7716	320.1	.1
.7377	319.1	.1
.6943	318	.1
.6614	317.2	.1
.3963	303.4	.1
.3723	300.5	.1
.3356	297.2	.1
.2988	293.6	.1
.2655	288.6	.1
.2416	285.3	.1
.2168	281.3	.1
.1743	274.1	.1
.1426	269.1	.1
.1149	264.6	.1
.0949	261.6	.1
.625	315.7	.1
.5872	314.2	.1
.5596	312.9	.1
.5278	311.5	.1
.5029	310.4	.1
.4581	307.7	.1
.427	305.5	.1
.0778	258.1	.1
.0498	256.8	.1
.0368	257.3	.1
.0263	257.3	.1
.0163	257.8	.1
0	258.1	.1

System: 1-nonanol + 1-ethyl-3-methylimidazolium tosylate; phases: Crystal, Crystal, Liquid, Air at 1 atmosphere
Fixed: Pressure, kPa = 101.325
Property: Eutectic temperature, K (Crystal); method: visual observation
Eutectic temperature, K	uncertainty
264.9	.1

System: 1-nonanol + 1-ethyl-3-methylimidazolium tosylate; phases: Crystal, Crystal, Liquid, Air at 1 atmosphere
Fixed: Pressure, kPa = 101.325
Property: Eutectic composition: mole fraction of 1-ethyl-3-methylimidazolium tosylate (Crystal); method: Derived from phase diagram analysis
Eutectic composition: mole fraction of 1-ethyl-3-methylimidazolium tosylate	uncertainty
.108	.001

System: 1-nonanol + 1-ethyl-3-methylimidazolium tosylate; phases: Liquid, Crystal
Fixed: Pressure, kPa = 101
Property: Solid-liquid equilibrium temperature, K (Liquid); method: Visual observation
Mole fraction of 1-ethyl-3-methylimidazolium tosylate	Solid-liquid equilibrium temperature, K	uncertainty
1	326.6	.1
.9666	325.7	.1
.9372	324.9	.1
.889	323.7	.1
.8359	322.5	.1
.7995	321.5	.1
.7465	320.2	.1
.7057	319.2	.1
.6649	318.2	.1
.6294	317.2	.1
.5862	315.7	.1
.5348	313.7	.1
.4953	311.9	.1
.4548	309.7	.1
.4213	307.5	.1
.3831	304.7	.1
.3436	300.7	.1
.3092	297	.1
.2675	291.9	.1
.2274	286.3	.1
.1955	281.4	.1
.1646	276.5	.1
.1346	271.7	.1
.1114	267.8	.1
.0849	265.1	.1
.0591	265.4	.1
.0408	265.7	.1
.0257	265.8	.1
0	266.1	.1

System: 1-decanol + 1-ethyl-3-methylimidazolium tosylate; phases: Crystal, Crystal, Liquid, Air at 1 atmosphere
Fixed: Pressure, kPa = 101.325
Property: Eutectic temperature, K (Crystal); method: visual observation
Eutectic temperature, K	uncertainty
279.1	.1

System: 1-decanol + 1-ethyl-3-methylimidazolium tosylate; phases: Crystal, Crystal, Liquid, Air at 1 atmosphere
Fixed: Pressure, kPa = 101.325
Property: Eutectic composition: mole fraction of 1-ethyl-3-methylimidazolium tosylate (Crystal); method: Derived from phase diagram analysis
Eutectic composition: mole fraction of 1-ethyl-3-methylimidazolium tosylate	uncertainty
.161	.001

System: 1-decanol + 1-ethyl-3-methylimidazolium tosylate; phases: Liquid, Crystal
Fixed: Pressure, kPa = 101
Property: Solid-liquid equilibrium temperature, K (Liquid); method: Visual observation
Mole fraction of 1-ethyl-3-methylimidazolium tosylate	Solid-liquid equilibrium temperature, K	uncertainty
1	326.6	.1
.9633	325.4	.1
.9306	324.8	.1
.8861	323.8	.1
.8252	322.6	.1
.7912	321.8	.1
.759	321.4	.1
.7287	321	.1
.6816	320	.1
.6324	318.8	.1
.5883	317.6	.1
.5472	316.1	.1
.5108	314.7	.1
.4689	312.9	.1
.4275	310.1	.1
.3942	308	.1
.3595	305.5	.1
.3298	302.4	.1
.2995	299.2	.1
.2653	295.1	.1
.2291	290.5	.1
.2042	286.7	.1
.1791	282.9	.1
.1531	279.3	.1
.1176	279.6	.1
.028	280.2	.1
.0578	279.9	.1
.0851	279.8	.1
0	280.4	.1

System: ethanol + 1-ethyl-3-methylimidazolium tosylate; phases: Liquid, Gas
Fixed: Temperature, K = 373.15
Property: Vapor or sublimation pressure, kPa (Liquid); method: Ebulliometric method (Recirculating still)
Mole fraction of 1-ethyl-3-methylimidazolium tosylate	Vapor or sublimation pressure, kPa	uncertainty
.5217	53.3	.1
.4851	59.2	.1
.435	67.5	.1
.4024	74.3	.1
.3741	81.1	.1
.3477	86.4	.1
.3195	92.2	.1
.306	95.7	.1
.2824	101.2	.1
.2648	105.7	.1
0	225	.1

System: water + 1-ethyl-3-methylimidazolium thiocyanate; phases: Liquid
Fixed: Pressure, kPa = 101
Property: Mass density, kg/m3 (Liquid); method: Vibrating tube method
Temperature, K	Mole fraction of 1-ethyl-3-methylimidazolium thiocyanate	Mass density, kg/m3	uncertainty
298.15	1	1116.84	.05
298.15	.9263	1115.64	.05
298.15	.8256	1113.68	.05
298.15	.7369	1111.59	.05
298.15	.6524	1109.2	.05
298.15	.5599	1105.92	.05
298.15	.4198	1098.72	.05
298.15	.3381	1092.51	.05
298.15	.2145	1077.88	.05
298.15	.1377	1062.14	.05
298.15	.0635	1036.86	.05
298.15	.0248	1016	.05
298.15	0	997.04	.05
308.15	1	1110.73	.05
308.15	.9263	1109.54	.05
308.15	.8256	1107.51	.05
308.15	.7369	1105.42	.05
308.15	.6524	1102.99	.05
308.15	.5599	1099.59	.05
308.15	.4198	1092.33	.05
308.15	.3381	1086.08	.05
308.15	.2145	1071.45	.05
308.15	.1377	1056.21	.05
308.15	.0635	1031.47	.05
308.15	.0248	1010.56	.05
308.15	0	992.03	.05
318.15	1	1104.67	.05
318.15	.9263	1103.5	.05
318.15	.8256	1101.41	.05
318.15	.7369	1099.15	.05
318.15	.6524	1096.81	.05
318.15	.5599	1093.4	.05
318.15	.4198	1085.98	.05
318.15	.3381	1079.64	.05
318.15	.2145	1064.98	.05
318.15	.1377	1049.96	.05
318.15	.0635	1025.75	.05
318.15	.0248	1005.23	.05
318.15	0	987.02	.05
328.15	1	1098.69	.05
328.15	.9263	1097.51	.05
328.15	.8256	1095.36	.05
328.15	.7369	1093.24	.05
328.15	.6524	1090.66	.05
328.15	.5599	1087.19	.05
328.15	.4198	1079.65	.05
328.15	.3381	1073.2	.05
328.15	.2145	1058.44	.05
328.15	.1377	1043.71	.05
328.15	.0635	1019.71	.05
328.15	.0248	1000.09	.05
328.15	0	981.69	.05
338.15	1	1092.73	.05
338.15	.9263	1091.43	.05
338.15	.8256	1089.34	.05
338.15	.7369	1087.14	.05
338.15	.6524	1084.56	.05
338.15	.5599	1081	.05
338.15	.4198	1073.3	.05
338.15	.3381	1066.76	.05
338.15	.2145	1051.85	.05
338.15	.1377	1036.7	.05
338.15	.0635	1013.39	.05
338.15	.0248	994.12	.05
338.15	0	977.03	.05
348.15	1	1086.83	.05
348.15	.9263	1085.62	.05
348.15	.8256	1083.37	.05
348.15	.7369	1081.08	.05
348.15	.6524	1078.47	.05
348.15	.5599	1074.85	.05
348.15	.4198	1066.97	.05
348.15	.3381	1060.28	.05
348.15	.2145	1045.17	.05
348.15	.1377	1030.27	.05
348.15	.0635	1006.75	.05
348.15	.0248	987.53	.05
348.15	0	971.75	.05

System: water + 1-ethyl-3-methylimidazolium thiocyanate; phases: Liquid
Fixed: Pressure, kPa = 101
Property: Excess molar volume, m3/mol (Liquid); method: Calculated with densities of this investigation
Temperature, K	Mole fraction of 1-ethyl-3-methylimidazolium thiocyanate	Excess molar volume, m3/mol	uncertainty
298.15	1	0	0
298.15	.9263	.0000000094	.0000000000094
298.15	.8256	.0000000249	.0000000000249
298.15	.7369	.0000000374	.0000000000374
298.15	.6524	.0000000457	.0000000000457
298.15	.5599	.0000000546	.0000000000546
298.15	.4198	.0000000786	.0000000000786
298.15	.3381	.0000000955	.0000000000955
298.15	.2145	.0000001101	.0000000001101
298.15	.1377	.0000001193	.0000000001193
298.15	.0635	.0000000921	.0000000000921
298.15	.0248	.0000000439	.0000000000439
298.15	0	0	0
308.15	1	0	0
308.15	.9263	.0000000123	.0000000000123
308.15	.8256	.0000000418	.0000000000418
308.15	.7369	.0000000587	.0000000000587
308.15	.6524	.000000075	.000000000075
308.15	.5599	.0000000984	.0000000000984
308.15	.4198	.0000001309	.0000000001309
308.15	.3381	.0000001522	.0000000001522
308.15	.2145	.0000001692	.0000000001692
308.15	.1377	.0000001627	.0000000001627
308.15	.0635	.0000001271	.0000000001271
308.15	.0248	.0000000852	.0000000000852
308.15	0	0	0
318.15	1	0	0
318.15	.9263	.0000000127	.0000000000127
318.15	.8256	.0000000539	.0000000000539
318.15	.7369	.0000000923	.0000000000923
318.15	.6524	.0000001013	.0000000001013
318.15	.5599	.0000001281	.0000000001281
318.15	.4198	.0000001755	.0000000001755
318.15	.3381	.0000002028	.0000000002028
318.15	.2145	.0000002208	.0000000002208
318.15	.1377	.0000002058	.0000000002058
318.15	.0635	.0000001575	.0000000001575
318.15	.0248	.0000001102	.0000000001102
318.15	0	0	0
328.15	1	0	0
328.15	.9263	.0000000161	.0000000000161
328.15	.8256	.0000000674	.0000000000674
328.15	.7369	.0000000927	.0000000000927
328.15	.6524	.0000001283	.0000000001283
328.15	.5599	.0000001612	.0000000001612
328.15	.4198	.0000002174	.0000000002174
328.15	.3381	.0000002504	.0000000002504
328.15	.2145	.0000002695	.0000000002695
328.15	.1377	.0000002411	.0000000002411
328.15	.0635	.0000001865	.0000000001865
328.15	.0248	.00000012	.00000000012
328.15	0	0	0
338.15	1	0	0
338.15	.9263	.0000000329	.0000000000329
338.15	.8256	.000000077	.000000000077
338.15	.7369	.0000001115	.0000000001115
338.15	.6524	.0000001469	.0000000001469
338.15	.5599	.0000001873	.0000000001873
338.15	.4198	.0000002528	.0000000002528
338.15	.3381	.0000002886	.0000000002886
338.15	.2145	.0000003089	.0000000003089
338.15	.1377	.0000002902	.0000000002902
338.15	.0635	.0000002077	.0000000002077
338.15	.0248	.0000001316	.0000000001316
338.15	0	0	0
348.15	1	0	0
348.15	.9263	.0000000216	.0000000000216
348.15	.8256	.0000000872	.0000000000872
348.15	.7369	.0000001318	.0000000001318
348.15	.6524	.0000001693	.0000000001693
348.15	.5599	.0000002138	.0000000002138
348.15	.4198	.0000002893	.0000000002893
348.15	.3381	.0000003308	.0000000003308
348.15	.2145	.0000003525	.0000000003525
348.15	.1377	.0000003175	.0000000003175
348.15	.0635	.0000002356	.0000000002356
348.15	.0248	.0000001543	.0000000001543
348.15	0	0	0
