Measured thermophysical data. (Solid + liquid) and (liquid + liquid) phase equilibria of (IL + water) binary systems. The influence of the ionic liquid structure on mutual solubility
Source: Fluid Phase Equilib., 2014, 10.1016/j.fluid.2013.11.003
Compound 1: 1-ethyl-3-methylimidazolium tricyanomethanide, C10H11N5, purity 98%
Compound 2: 1-butyl-3-methylimidazolium tricyanomethane, C12H15N5, purity 98%
Compound 3: 1-butyl-3-methylimidazolium dicyanamide, C10H15N5, purity 98%
Compound 4: 1-butyl-1-methylpyrrolidinium tricyanomethanide, C13H20N4, purity 98%
Compound 5: 1-butyl-1-methylpyrrolidinium tetracyanoborate, C13H20BN5, purity 98%
Compound 6: 1-butyl-1-methylpyrrolidinium trifluoromethanesulfonate, C10H20F3NO3S, purity 99%
Compound 7: 1-butyl-1-methylmorpholinium tricyanomethanide, C13H20N4O, purity 97%
Compound 8: trihexyltetradecylphosphonium tricyanomethanide, C36H68N3P, purity 98%
Compound 9: water, H2O

System: 1-ethyl-3-methylimidazolium tricyanomethanide; phases: Crystal 1, Liquid, Air at 1 atmosphere
Property: Normal melting temperature, K (Crystal 1); method: DSC/DTA
Normal melting temperature, K	uncertainty
263.85	.1

System: 1-ethyl-3-methylimidazolium tricyanomethanide; phases: Crystal 1, Liquid, Air at 1 atmosphere
Property: Molar enthalpy of transition or fusion, kJ/mol (Crystal 1); method: DSC/DTA
Molar enthalpy of transition or fusion, kJ/mol	uncertainty
9.02	.5

System: 1-ethyl-3-methylimidazolium tricyanomethanide; phases: Crystal 2, Crystal 1, Air at 1 atmosphere
Property: Triple point temperature, K (Crystal 2); method: DSC/DTA
Triple point temperature, K	uncertainty
237.8	.1

System: 1-ethyl-3-methylimidazolium tricyanomethanide; phases: Crystal 2, Crystal 1, Air at 1 atmosphere
Property: Molar enthalpy of transition or fusion, kJ/mol (Crystal 2); method: DSC/DTA
Molar enthalpy of transition or fusion, kJ/mol	uncertainty
1.04	.5

System: 1-ethyl-3-methylimidazolium tricyanomethanide; phases: Glass, Liquid, Air at 1 atmosphere
Property: Triple point temperature, K (Glass); method: DSC/DTA
Triple point temperature, K	uncertainty
181.51	.1

System: 1-butyl-3-methylimidazolium tricyanomethane; phases: Glass, Liquid, Air at 1 atmosphere
Property: Triple point temperature, K (Glass); method: DSC/DTA
Triple point temperature, K	uncertainty
187.61	.1

System: 1-butyl-1-methylpyrrolidinium tricyanomethanide; phases: Glass, Liquid, Air at 1 atmosphere
Property: Triple point temperature, K (Glass); method: DSC/DTA
Triple point temperature, K	uncertainty
178.01	.1

System: 1-butyl-1-methylpyrrolidinium tricyanomethanide; phases: Crystal, Liquid, Air at 1 atmosphere
Property: Normal melting temperature, K (Crystal); method: Visual observation
Normal melting temperature, K	uncertainty
266.52	.05

System: 1-butyl-1-methylpyrrolidinium tetracyanoborate; phases: Crystal, Liquid, Air at 1 atmosphere
Property: Normal melting temperature, K (Crystal); method: DSC/DTA
Normal melting temperature, K	uncertainty
292.77	.1

System: 1-butyl-1-methylpyrrolidinium tetracyanoborate; phases: Crystal, Liquid, Air at 1 atmosphere
Property: Molar enthalpy of transition or fusion, kJ/mol (Crystal); method: DSC/DTA
Molar enthalpy of transition or fusion, kJ/mol	uncertainty
20.58	.5

System: 1-butyl-1-methylpyrrolidinium tetracyanoborate; phases: Crystal, Liquid, Air at 1 atmosphere
Property: Normal melting temperature, K (Crystal); method: Visual observation
Normal melting temperature, K	uncertainty
292.85	.05

System: 1-butyl-1-methylpyrrolidinium trifluoromethanesulfonate; phases: Crystal, Liquid, Air at 1 atmosphere
Property: Normal melting temperature, K (Crystal); method: Visual observation
Normal melting temperature, K	uncertainty
277.78	.05

System: 1-butyl-1-methylmorpholinium tricyanomethanide; phases: Glass, Liquid, Air at 1 atmosphere
Property: Triple point temperature, K (Glass); method: DSC/DTA
Triple point temperature, K	uncertainty
210.3	.1

System: trihexyltetradecylphosphonium tricyanomethanide; phases: Crystal, Liquid, Air at 1 atmosphere
Property: Normal melting temperature, K (Crystal); method: DSC/DTA
Normal melting temperature, K	uncertainty
203.66	.1

System: trihexyltetradecylphosphonium tricyanomethanide; phases: Crystal, Liquid, Air at 1 atmosphere
Property: Molar enthalpy of transition or fusion, kJ/mol (Crystal); method: DSC/DTA
Molar enthalpy of transition or fusion, kJ/mol	uncertainty
8.48	.5

System: water; phases: Crystal, Liquid, Air at 1 atmosphere
Property: Normal melting temperature, K (Crystal); method: Visual observation
Normal melting temperature, K	uncertainty
273.15	.05

System: water + 1-ethyl-3-methylimidazolium tricyanomethanide; phases: Liquid, Crystal
Fixed: Pressure, kPa = 100
Property: Solid-liquid equilibrium temperature, K (Liquid); method: Visual observation
Mole fraction of 1-ethyl-3-methylimidazolium tricyanomethanide	Solid-liquid equilibrium temperature, K	uncertainty
.3338	241.48	.05
.3127	245.66	.05
.2919	249.22	.05
.2739	252.17	.05
.2556	254.29	.05
.2365	256.72	.05
.2143	259.29	.05
.1941	261.57	.05
.1707	264.09	.05
.1444	266.62	.05
.1194	268.56	.05
.095	269.86	.05
.0615	271.06	.05
.0424	271.77	.05
.0212	272.41	.05
.0113	272.81	.05
.0068	272.92	.05
0	273.15	.05

System: water + 1-butyl-3-methylimidazolium tricyanomethane; phases: Liquid mixture 1, Liquid mixture 2
Fixed: Pressure, kPa = 100
Property: Liquid-liquid equilibrium temperature, K (Liquid mixture 1); method: Visual observation
Mole fraction of 1-butyl-3-methylimidazolium tricyanomethane	Liquid-liquid equilibrium temperature, K	uncertainty
.1541	286.2	.05
.1475	291.5	.05
.1371	297.42	.05
.1277	302.93	.05
.1191	307.64	.05
.1087	312.17	.05
.101	315.53	.05
.0956	317.16	.05
.089	319.27	.05
.0759	322.78	.05
.0649	324.97	.05
.0565	325.74	.05
.0462	326.73	.05
.042	326.81	.05
.0328	326.76	.05
.024	325.97	.05
.0181	323.88	.05
.0148	321.51	.05
.0119	317.66	.05
.0097	313.2	.05
.008	306.91	.05
.0068	301.49	.05
.0061	293.64	.05

System: water + 1-butyl-3-methylimidazolium dicyanamide; phases: Liquid, Crystal
Fixed: Pressure, kPa = 100
Property: Solid-liquid equilibrium temperature, K (Liquid); method: Visual observation
Mole fraction of 1-butyl-3-methylimidazolium dicyanamide	Solid-liquid equilibrium temperature, K	uncertainty
.2183	245.03	.05
.1912	253.03	.05
.1698	257.65	.05
.1499	260.87	.05
.126	264.23	.05
.1169	265.1	.05
.1003	266.98	.05
.0894	267.8	.05
.0818	268.24	.05
.0672	269.33	.05
.0655	269.44	.05
.0544	270.01	.05
.0433	270.51	.05
.0418	270.53	.05
.0291	271.28	.05
.0204	271.8	.05
.0148	272.09	.05
0	273.15	.05

System: water + 1-butyl-1-methylpyrrolidinium tricyanomethanide; phases: Liquid mixture 1, Liquid mixture 2
Fixed: Pressure, kPa = 100
Property: Liquid-liquid equilibrium temperature, K (Liquid mixture 1); method: Visual observation
Mole fraction of 1-butyl-1-methylpyrrolidinium tricyanomethanide	Liquid-liquid equilibrium temperature, K	uncertainty
.0049	300.75	.05
.0055	305.76	.05
.0064	313.24	.05
.0079	322.33	.05
.0091	327.07	.05
.0108	331.56	.05
.0125	334.19	.05
.0162	336.94	.05
.0245	341.87	.05
.0385	343.06	.05
.0707	338.04	.05
.0825	330.84	.05
.0891	326.89	.05
.0967	321.27	.05
.1021	315.33	.05
.1063	310.12	.05
.1104	305.09	.05
.1142	300.28	.05
.1181	294.4	.05
.1212	288.77	.05
.1225	287.44	.05

System: water + 1-butyl-1-methylpyrrolidinium tricyanomethanide; phases: Liquid, Crystal
Fixed: Pressure, kPa = 100
Property: Solid-liquid equilibrium temperature, K (Liquid); method: Visual observation
Mole fraction of 1-butyl-1-methylpyrrolidinium tricyanomethanide	Solid-liquid equilibrium temperature, K	uncertainty
1	266.52	.05
.8576	261.92	.05
.7552	259.48	.05
.6591	256.67	.05
.5934	254.87	.05
.5435	251.93	.05
.4813	246.64	.05

System: water + 1-butyl-1-methylpyrrolidinium tetracyanoborate; phases: Liquid mixture 1, Liquid mixture 2
Fixed: Pressure, kPa = 100
Property: Liquid-liquid equilibrium temperature, K (Liquid mixture 1); method: Visual observation
Mole fraction of 1-butyl-1-methylpyrrolidinium tetracyanoborate	Liquid-liquid equilibrium temperature, K	uncertainty
.5807	287.77	.05
.5515	296.07	.05
.5248	302.67	.05
.4957	309.96	.05
.4807	314.56	.05
.4691	317.69	.05
.4527	320.7	.05
.4409	323.23	.05
.4189	328.33	.05
.3978	332.65	.05
.3703	338.52	.05
.3461	344.29	.05
.3252	349.54	.05
.288	355.86	.05
.0017	352.79	.05
.0014	339.15	.05
.001	316.7	.05
.0009	307.75	.05

System: water + 1-butyl-1-methylpyrrolidinium tetracyanoborate; phases: Liquid, Crystal
Fixed: Pressure, kPa = 100
Property: Solid-liquid equilibrium temperature, K (Liquid); method: Visual observation
Mole fraction of 1-butyl-1-methylpyrrolidinium tetracyanoborate	Solid-liquid equilibrium temperature, K	uncertainty
1	292.85	.05
.8811	288.22	.05
.8521	287.09	.05
.8105	285.48	.05
.7757	284.36	.05
.733	283.21	.05
.702	282.45	.05
.6705	281.49	.05
.6477	280.68	.05
.6242	280.09	.05
.5807	279.93	.05

System: water + 1-butyl-1-methylpyrrolidinium trifluoromethanesulfonate; phases: Liquid, Crystal, Air at 1 atmosphere, Crystal
Fixed: Pressure, kPa = 101.325
Property: Eutectic composition: mole fraction of 1-butyl-1-methylpyrrolidinium trifluoromethanesulfonate (Liquid); method: Derived from phase diagram analysis
Eutectic composition: mole fraction of 1-butyl-1-methylpyrrolidinium trifluoromethanesulfonate	uncertainty
.4067	.0001

System: water + 1-butyl-1-methylpyrrolidinium trifluoromethanesulfonate; phases: Liquid, Crystal, Crystal, Air at 1 atmosphere
Fixed: Pressure, kPa = 101.325
Property: Eutectic temperature, K (Liquid); method: Derived from phase diagram analysis
Eutectic temperature, K	uncertainty
245.42	.05

System: water + 1-butyl-1-methylpyrrolidinium trifluoromethanesulfonate; phases: Liquid, Crystal
Fixed: Pressure, kPa = 100
Property: Solid-liquid equilibrium temperature, K (Liquid); method: Visual observation
Mole fraction of 1-butyl-1-methylpyrrolidinium trifluoromethanesulfonate	Solid-liquid equilibrium temperature, K	uncertainty
1	277.78	.05
.9236	275.32	.05
.8447	271.78	.05
.7966	269.09	.05
.7573	266.81	.05
.7111	264.35	.05
.6591	261.24	.05
.6041	257.97	.05
.5411	254.33	.05
.4738	249.78	.05
.4397	247.73	.05
.4067	245.42	.05

System: water + 1-butyl-1-methylpyrrolidinium trifluoromethanesulfonate; phases: Liquid, Crystal
Fixed: Pressure, kPa = 100
Property: Solid-liquid equilibrium temperature, K (Liquid); method: Visual observation
Mole fraction of 1-butyl-1-methylpyrrolidinium trifluoromethanesulfonate	Solid-liquid equilibrium temperature, K	uncertainty
.3732	249	.05
.3544	252.2	.05
.3345	254.42	.05
.3151	256.55	.05
.2947	258.61	.05
.275	260.8	.05
.2552	262.29	.05
.2377	263.58	.05
.2191	264.58	.05
.2027	265.62	.05
.1826	266.76	.05
.1627	267.34	.05
.1453	267.98	.05
.1257	268.6	.05
.1077	269.27	.05
.0766	270.26	.05
.0391	271.57	.05
0	273.15	.05
.4067	245.42	.05

System: 1-butyl-1-methylmorpholinium tricyanomethanide + water; phases: Crystal, Liquid mixture 1, Liquid mixture 2, Air at 1 atmosphere
Fixed: Pressure, kPa = 101.325
Property: Monotectic temperature, K (Crystal); method: Derived from phase diagram analysis
Monotectic temperature, K	uncertainty
273.02	.05

System: 1-butyl-1-methylmorpholinium tricyanomethanide + water; phases: Liquid, Crystal
Fixed: Pressure, kPa = 100
Property: Solid-liquid equilibrium temperature, K (Liquid); method: Visual observation
Mole fraction of 1-butyl-1-methylmorpholinium tricyanomethanide	Solid-liquid equilibrium temperature, K	uncertainty
.462	237.72	.05
.4007	248.81	.05
.357	255.76	.05
.3021	262.29	.05
.321	260.14	.05
.2864	264.02	.05
.2777	264.69	.05
.2548	266.55	.05
.249	266.85	.05
.2264	268.48	.05
.2147	269.15	.05
.1867	270.13	.05
.1631	271.26	.05
.1564	271.8	.05
.1378	272.16	.05
.1275	272.29	.05
.1155	272.43	.05
.1147	272.83	.05
.0614	272.94	.05
.0836	273.02	.05
.081	273.02	.05
.0712	273.02	.05
.0607	273.02	.05
.052	273.02	.05
.0472	273.02	.05
.0411	273.02	.05
.0327	273.02	.05
.0263	273.02	.05
.0192	273.02	.05
.0139	273.02	.05
0	273.15	.05

System: 1-butyl-1-methylmorpholinium tricyanomethanide + water; phases: Liquid mixture 1, Liquid mixture 2
Fixed: Pressure, kPa = 100
Property: Liquid-liquid equilibrium temperature, K (Liquid mixture 1); method: Visual observation
Mole fraction of 1-butyl-1-methylmorpholinium tricyanomethanide	Liquid-liquid equilibrium temperature, K	uncertainty
.0836	276.52	.05
.081	278.04	.05
.0712	281.56	.05
.0607	284.04	.05
.052	285.61	.05
.0472	286.46	.05
.0411	286.68	.05
.0327	286.12	.05
.0263	284.64	.05
.0192	282.54	.05
.0139	278.97	.05

System: water + trihexyltetradecylphosphonium tricyanomethanide; phases: Liquid mixture 1, Liquid mixture 2
Fixed: Pressure, kPa = 100
Property: Liquid-liquid equilibrium temperature, K (Liquid mixture 1); method: Visual observation
Mole fraction of trihexyltetradecylphosphonium tricyanomethanide	Liquid-liquid equilibrium temperature, K	uncertainty
.7601	288.15	.05
.7072	309.2	.05
.6514	326.72	.05
.6367	332.32	.05
.5967	343.8	.05
.5597	354.49	.05
