Measured thermophysical data. Determination of the solubility, dissolution enthalpy and entropy of Deflazacort in different solvents
Source: Fluid Phase Equilib., 2011, 10.1016/j.fluid.2011.03.032
Compound 1: deflazacort, C25H31NO6
Compound 2: acetone, C3H6O, purity 99.5%
Compound 3: ethyl ethanoate, C4H8O2, purity 99.5%
Compound 4: ethanol, C2H6O, purity 99.7%
Compound 5: 2-propanol, C3H8O, purity 99.7%

System: acetone + deflazacort; phases: Liquid, Crystal
Fixed: Pressure, kPa = 101
Property: Mole fraction of deflazacort (Liquid); method: Synthetic
Temperature, K	Mole fraction of deflazacort	uncertainty
293.15	.006181	.00006181
298.15	.00674	.0000674
303.15	.007349	.00007349
308.15	.007968	.00007968
313.15	.008607	.00008607
318.15	.009465	.00009465
323.15	.010398	.00010398

System: acetone + deflazacort; phases: Liquid, Crystal
Fixed: Pressure, kPa = 101
Property: Molar enthalpy of solution, kJ/mol (Liquid); method: Derived from van't Hoff Equation
Temperature, K	Molar enthalpy of solution, kJ/mol	uncertainty
298.15	13.48	.2696

System: ethyl ethanoate + deflazacort; phases: Liquid, Crystal
Fixed: Pressure, kPa = 101
Property: Mole fraction of deflazacort (Liquid); method: Synthetic
Temperature, K	Mole fraction of deflazacort	uncertainty
293.15	.00331	.0000331
298.15	.00361	.0000361
303.15	.003927	.00003927
308.15	.00426	.0000426
313.15	.004649	.00004649
318.15	.005099	.00005099
323.15	.005594	.00005594
328.15	.006097	.00006097
333.15	.006684	.00006684
338.15	.007366	.00007366
343.15	.008052	.00008052

System: ethyl ethanoate + deflazacort; phases: Liquid, Crystal
Fixed: Pressure, kPa = 101
Property: Molar enthalpy of solution, kJ/mol (Liquid); method: Derived from van't Hoff Equation
Temperature, K	Molar enthalpy of solution, kJ/mol	uncertainty
298.15	14.88	.2976

System: ethanol + deflazacort; phases: Liquid, Crystal
Fixed: Pressure, kPa = 101
Property: Mole fraction of deflazacort (Liquid); method: Synthetic
Temperature, K	Mole fraction of deflazacort	uncertainty
293.15	.001669	.00001669
298.15	.002003	.00002003
303.15	.002362	.00002362
308.15	.002786	.00002786
313.15	.003345	.00003345
318.15	.003972	.00003972
323.15	.004767	.00004767
328.15	.005657	.00005657
333.15	.006626	.00006626
338.15	.007954	.00007954
343.15	.009573	.00009573

System: ethanol + deflazacort; phases: Liquid, Crystal
Fixed: Pressure, kPa = 101
Property: Molar enthalpy of solution, kJ/mol (Liquid); method: Derived from van't Hoff Equation
Temperature, K	Molar enthalpy of solution, kJ/mol	uncertainty
298.15	29.06	.5812

System: 2-propanol + deflazacort; phases: Liquid, Crystal
Fixed: Pressure, kPa = 101
Property: Mole fraction of deflazacort (Liquid); method: Synthetic
Temperature, K	Mole fraction of deflazacort	uncertainty
293.15	.001266	.00001266
298.15	.00161	.0000161
303.15	.002021	.00002021
308.15	.002493	.00002493
313.15	.003046	.00003046
318.15	.003799	.00003799
323.15	.004563	.00004563
328.15	.005661	.00005661
333.15	.006826	.00006826
338.15	.008126	.00008126
343.15	.009727	.00009727
348.15	.012093	.00012093

System: 2-propanol + deflazacort; phases: Liquid, Crystal
Fixed: Pressure, kPa = 101
Property: Molar enthalpy of solution, kJ/mol (Liquid); method: Derived from van't Hoff Equation
Temperature, K	Molar enthalpy of solution, kJ/mol	uncertainty
298.15	34.37	.6874
