Measured thermophysical data. The mean activity coefficients of LaCl3 in dilute aqueous solution at 298.15 K
Source: Fluid Phase Equilib., 2010, 10.1016/j.fluid.2009.11.001
Compound 1: lanthanum chloride (LaCl3), Cl3La
Compound 2: water, H2O

System: water + lanthanum chloride (LaCl3); phases: Liquid
Fixed: Temperature, K = 298.15
Fixed: Pressure, kPa = 101.325
Property: Activity coefficient of lanthanum chloride (LaCl3) (Liquid); method: (Electrochemical) cell potential
Molality, mol/kg of lanthanum chloride (LaCl3)	Activity coefficient of lanthanum chloride (LaCl3)	uncertainty
.08762	.799	.002
.1134	.778	.002
.2736	.695	.002
.3852	.659	.002
.6932	.594	.002
1.007	.553	.002
1.754	.494	.002
2.105	.476	.002
2.553	.456	.002
3.573	.419	.002
4.253	.408	.002
4.996	.392	.002
5.985	.375	.002
6.788	.363	.002
