Measured thermophysical data. Liquid-liquid equilibrium data for binary systems containing o-dichlorobenzene and nitrobenzene
Source: Fluid Phase Equilib., 2015, 10.1016/j.fluid.2014.11.012
Compound 1: 1,2-ethanediol, C2H6O2, purity .995%
Compound 2: 1,2-propanediol, C3H8O2, purity .998%
Compound 3: o-dichlorobenzene, C6H4Cl2, purity .995%
Compound 4: nitrobenzene, C6H5NO2, purity .99%
Compound 5: toluene, C7H8, purity 99.8%

System: 1,2-ethanediol + toluene; phases: Liquid mixture 1, Liquid mixture 2
Property: Mole fraction of toluene (Liquid mixture 1); method: Chromatography
Temperature, K	Pressure, kPa	Mole fraction of toluene	uncertainty
307.86	101.33	.9964	.0001
320.94	101.33	.9915	.0001
333.64	101.33	.9907	.0001
344.14	101.33	.9884	.0001
351.6	101.33	.9876	.0001
356.65	101.33	.9827	.0001
363.86	101.33	.9826	.0001
373.34	101.33	.9807	.0001
383.13	101.33	.9735	.0001
389.27	101.33	.9699	.0001
398.54	101.33	.9574	.0001
404.64	101.33	.9504	.0001
411.65	101.33	.9354	.0001

System: 1,2-ethanediol + toluene; phases: Liquid mixture 2, Liquid mixture 1
Property: Mole fraction of toluene (Liquid mixture 2); method: Chromatography
Temperature, K	Pressure, kPa	Mole fraction of toluene	uncertainty
307.86	101.33	.0258	.0001
320.94	101.33	.0289	.0001
333.64	101.33	.0305	.0001
344.14	101.33	.0372	.0001
351.6	101.33	.0357	.0001
356.65	101.33	.0372	.0001
363.86	101.33	.0415	.0001
373.34	101.33	.034	.0001
383.13	101.33	.038	.0001
389.27	101.33	.0414	.0001
398.54	101.33	.0461	.0001
404.64	101.33	.0499	.0001
411.65	101.33	.066	.0001

System: o-dichlorobenzene + 1,2-ethanediol; phases: Liquid mixture 1, Liquid mixture 2
Property: Mole fraction of o-dichlorobenzene (Liquid mixture 1); method: Chromatography
Temperature, K	Pressure, kPa	Mole fraction of o-dichlorobenzene	uncertainty
307.95	101.33	.0208	.0001
319.68	101.33	.024	.0001
332.86	101.33	.0243	.0001
340.97	101.33	.0248	.0001
348.07	101.33	.0274	.0001
355.85	101.33	.03	.0001
363.96	101.33	.0322	.0001
370.57	101.33	.0352	.0001
381.15	101.33	.0396	.0001
389.57	101.33	.0424	.0001

System: o-dichlorobenzene + 1,2-ethanediol; phases: Liquid mixture 2, Liquid mixture 1
Property: Mole fraction of o-dichlorobenzene (Liquid mixture 2); method: Chromatography
Temperature, K	Pressure, kPa	Mole fraction of o-dichlorobenzene	uncertainty
307.95	101.33	.9856	.0001
319.68	101.33	.9821	.0001
332.86	101.33	.9788	.0001
340.97	101.33	.9783	.0001
348.07	101.33	.9763	.0001
355.85	101.33	.9756	.0001
363.96	101.33	.9744	.0001
370.57	101.33	.971	.0001
381.15	101.33	.9707	.0001
389.57	101.33	.9683	.0001

System: 1,2-propanediol + o-dichlorobenzene; phases: Liquid mixture 1, Liquid mixture 2
Property: Mole fraction of o-dichlorobenzene (Liquid mixture 1); method: Chromatography
Temperature, K	Pressure, kPa	Mole fraction of o-dichlorobenzene	uncertainty
307.38	101.33	.0789	.0001
317.07	101.33	.0834	.0001
327.73	101.33	.0845	.0001
340.93	101.33	.0958	.0001
349.06	101.33	.1061	.0001
360.07	101.33	.1157	.0001

System: 1,2-propanediol + o-dichlorobenzene; phases: Liquid mixture 2, Liquid mixture 1
Property: Mole fraction of o-dichlorobenzene (Liquid mixture 2); method: Chromatography
Temperature, K	Pressure, kPa	Mole fraction of o-dichlorobenzene	uncertainty
307.38	101.33	.9687	.0001
317.07	101.33	.9674	.0001
327.73	101.33	.9667	.0001
340.93	101.33	.9667	.0001
349.06	101.33	.964	.0001
360.07	101.33	.9587	.0001

System: 1,2-propanediol + nitrobenzene; phases: Liquid mixture 1, Liquid mixture 2
Property: Mole fraction of 1,2-propanediol (Liquid mixture 1); method: Chromatography
Temperature, K	Pressure, kPa	Mole fraction of 1,2-propanediol	uncertainty
298.57	101.33	.1399	.0001
308.34	101.33	.1445	.0001
311.02	101.33	.1485	.0001
320.27	101.33	.1519	.0001
326.54	101.33	.1534	.0001
334.24	101.33	.155	.0001
338.18	101.33	.1566	.0001
346.43	101.33	.1602	.0001
350.54	101.33	.1627	.0001

System: 1,2-propanediol + nitrobenzene; phases: Liquid mixture 2, Liquid mixture 1
Property: Mole fraction of 1,2-propanediol (Liquid mixture 2); method: Chromatography
Temperature, K	Pressure, kPa	Mole fraction of 1,2-propanediol	uncertainty
298.57	101.33	.9376	.0001
308.34	101.33	.9236	.0001
311.02	101.33	.9159	.0001
320.27	101.33	.8979	.0001
326.54	101.33	.881	.0001
334.24	101.33	.8626	.0001
338.18	101.33	.8514	.0001
346.43	101.33	.8333	.0001
350.54	101.33	.8043	.0001

System: nitrobenzene + 1,2-ethanediol; phases: Liquid mixture 1, Liquid mixture 2
Property: Mole fraction of nitrobenzene (Liquid mixture 1); method: Chromatography
Temperature, K	Pressure, kPa	Mole fraction of nitrobenzene	uncertainty
311.45	101.33	.0427	.0001
319.68	101.33	.0444	.0001
328.94	101.33	.0464	.0001
340.14	101.33	.0536	.0001
349.56	101.33	.0623	.0001
358.54	101.33	.0739	.0001
368.64	101.33	.0832	.0001
377.54	101.33	.096	.0001
386.54	101.33	.0999	.0001

System: nitrobenzene + 1,2-ethanediol; phases: Liquid mixture 2, Liquid mixture 1
Property: Mole fraction of nitrobenzene (Liquid mixture 2); method: Chromatography
Temperature, K	Pressure, kPa	Mole fraction of nitrobenzene	uncertainty
311.45	101.33	.9463	.0001
319.68	101.33	.9286	.0001
328.94	101.33	.9115	.0001
340.14	101.33	.8929	.0001
349.56	101.33	.8699	.0001
358.54	101.33	.8411	.0001
368.64	101.33	.8101	.0001
377.54	101.33	.7757	.0001
386.54	101.33	.7547	.0001
