Measured thermophysical data. Novel phase diagrams of aqueous two-phase systems based on tetrahydrofuran + carbohydrates + water: equilibrium data and partitioning experiments
Source: Fluid Phase Equilib., 2017, 10.1016/j.fluid.2016.11.001
Compound 1: D-xylose, C5H10O5, purity 99%
Compound 2: D-fructose, C6H12O6, purity 98%
Compound 3: L-(+)-arabinose, C5H10O5, purity 99%
Compound 4: D-(-)-arabinose, C5H10O5, purity 99%
Compound 5: D-mannose, C6H12O6, purity 99%
Compound 6: D(+)-glucose, C6H12O6, purity 95%
Compound 7: D-(+)-sucrose, C12H22O11, purity 95.55%
Compound 8: D-(+)-maltose monohydrate, C12H24O12, purity 98%
Compound 9: THF, C4H8O, purity 99.9%
Compound 10: water, H2O, purity 99.8%

System: D-xylose + THF + water; phases: Liquid mixture 1, Liquid mixture 2
Fixed: Temperature, K = 298.15
Fixed: Pressure, kPa = 100
Property: Mass fraction of D-xylose (Liquid mixture 1); method: Titration method
Mass fraction of THF	Mass fraction of D-xylose	uncertainty
.0953	.5771	
.1414	.4662	
.1595	.4217	
.1726	.4072	
.1783	.3943	
.19	.3759	
.2029	.36	
.224	.3326	
.2408	.3164	
.2705	.2919	
.3107	.2491	
.3577	.2146	
.4126	.181	
.4616	.1541	
.4829	.1449	
.4943	.1396	
.5065	.1339	
.5206	.1288	
.5521	.1173	
.5681	.1105	
.6094	.0983	
.6366	.0908	
.6596	.0816	
.7007	.0738	

System: D-xylose + THF + water; phases: Liquid
Fixed: Pressure, kPa = 100
Property: Mass density, kg/m3 (Liquid); method: Vibrating tube method
Temperature, K	Mass fraction of D-xylose	Mass fraction of THF	Mass density, kg/m3	uncertainty
283	.2	.45	935	
288	.2	.45	930	
293	.2	.45	925	
298	.2	.45	919	
303	.2	.45	914	
308	.2	.45	910	
313	.2	.45	906	
318	.2	.45	901	
323	.2	.45	897	
328	.2	.45	892	
333	.2	.45	886	
283	.25	.45	927	
288	.25	.45	922	
293	.25	.45	917	
298	.25	.45	911	
303	.25	.45	907	
308	.25	.45	902	
313	.25	.45	897	
318	.25	.45	891	
323	.25	.45	886	
328	.25	.45	880	
333	.25	.45	875	

System: D-xylose + THF + water; phases: Liquid
Fixed: Pressure, kPa = 100
Property: Mass density, kg/m3 (Liquid); method: Vibrating tube method
Temperature, K	Mass fraction of D-xylose	Mass fraction of THF	Mass density, kg/m3	uncertainty
283	.2	.45	1210	
288	.2	.45	1207	
293	.2	.45	1204	
298	.2	.45	1200	
303	.2	.45	1197	
308	.2	.45	1194	
313	.2	.45	1191	
318	.2	.45	1187	
323	.2	.45	1184	
328	.2	.45	1181	
333	.2	.45	1177	
283	.25	.45	1229	
288	.25	.45	1226	
293	.25	.45	1223	
298	.25	.45	1220	
303	.25	.45	1217	
308	.25	.45	1214	
313	.25	.45	1210	
318	.25	.45	1207	
323	.25	.45	1204	
328	.25	.45	1200	
333	.25	.45	1197	

System: D-xylose + THF + water; phases: Liquid
Fixed: Pressure, kPa = 100
Property: Viscosity, Pa*s (Liquid); method: Concentric cylinders viscometry
Temperature, K	Mass fraction of D-xylose	Mass fraction of THF	Viscosity, Pa*s	uncertainty
283	.2	.45	.001118	
288	.2	.45	.001023	
293	.2	.45	.000931	
298	.2	.45	.00085	
303	.2	.45	.000779	
308	.2	.45	.000713	
313	.2	.45	.000659	
318	.2	.45	.000607	
323	.2	.45	.000562	
328	.2	.45	.000516	
333	.2	.45	.000446	
283	.25	.45	.000901	
288	.25	.45	.000834	
293	.25	.45	.000767	
298	.25	.45	.000708	
303	.25	.45	.000653	
308	.25	.45	.000606	
313	.25	.45	.000563	
318	.25	.45	.000524	
323	.25	.45	.000489	
328	.25	.45	.000442	
333	.25	.45	.000387	

System: D-xylose + THF + water; phases: Liquid
Fixed: Pressure, kPa = 100
Property: Viscosity, Pa*s (Liquid); method: Concentric cylinders viscometry
Temperature, K	Mass fraction of D-xylose	Mass fraction of THF	Viscosity, Pa*s	uncertainty
283	.2	.45	.027986	
288	.2	.45	.021458	
293	.2	.45	.01671	
298	.2	.45	.013257	
303	.2	.45	.010701	
308	.2	.45	.008768	
313	.2	.45	.007284	
318	.2	.45	.006128	
323	.2	.45	.005201	
328	.2	.45	.004463	
333	.2	.45	.003873	
283	.25	.45	.03867	
288	.25	.45	.029104	
293	.25	.45	.022301	
298	.25	.45	.017431	
303	.25	.45	.013885	
308	.25	.45	.011237	
313	.25	.45	.009232	
318	.25	.45	.007684	
323	.25	.45	.006476	
328	.25	.45	.005518	
333	.25	.45	.00478	

System: D-fructose + THF + water; phases: Liquid mixture 1, Liquid mixture 2
Fixed: Temperature, K = 298.15
Fixed: Pressure, kPa = 100
Property: Mass fraction of D-fructose (Liquid mixture 1); method: Titration method
Mass fraction of THF	Mass fraction of D-fructose	uncertainty
.0117	.9185	
.0354	.7056	
.0694	.5509	
.1235	.3964	
.1598	.3566	
.1684	.3426	
.1866	.3246	
.2652	.2401	
.2926	.2158	
.5094	.1036	
.4851	.113	
.4616	.1183	
.4473	.1206	
.433	.1319	
.4177	.136	
.3963	.1482	
.3771	.1553	
.3588	.1666	
.3492	.1731	
.3225	.1927	
.294	.2204	
.3179	.1982	
.5417	.0966	
.5798	.0862	
.6228	.072	
.6786	.0589	
.7453	.0475	
.7746	.0422	

System: D-fructose + THF + water; phases: Liquid
Fixed: Pressure, kPa = 100
Property: Mass density, kg/m3 (Liquid); method: Vibrating tube method
Temperature, K	Mass fraction of D-fructose	Mass fraction of THF	Mass density, kg/m3	uncertainty
283	.2	.45	926	
288	.2	.45	921	
293	.2	.45	916	
298	.2	.45	910	
303	.2	.45	905	
308	.2	.45	900	
313	.2	.45	894	
318	.2	.45	889	
323	.2	.45	883	
328	.2	.45	878	
333	.2	.45	872	
283	.25	.45	919	
288	.25	.45	914	
293	.25	.45	909	
298	.25	.45	903	
303	.25	.45	898	
308	.25	.45	892	
313	.25	.45	887	
318	.25	.45	881	
323	.25	.45	876	
328	.25	.45	870	
333	.25	.45	865	

System: D-fructose + THF + water; phases: Liquid
Fixed: Pressure, kPa = 100
Property: Mass density, kg/m3 (Liquid); method: Vibrating tube method
Temperature, K	Mass fraction of D-fructose	Mass fraction of THF	Mass density, kg/m3	uncertainty
283	.2	.45	1227	
288	.2	.45	1224	
293	.2	.45	1220	
298	.2	.45	1217	
303	.2	.45	1214	
308	.2	.45	1210	
313	.2	.45	1206	
318	.2	.45	1202	
323	.2	.45	1198	
328	.2	.45	1194	
333	.2	.45	1190	
283	.25	.45	1254	
288	.25	.45	1251	
293	.25	.45	1248	
298	.25	.45	1244	
303	.25	.45	1241	
308	.25	.45	1237	
313	.25	.45	1233	
318	.25	.45	1229	
323	.25	.45	1225	
328	.25	.45	1222	
333	.25	.45	1215	

System: D-fructose + THF + water; phases: Liquid
Fixed: Pressure, kPa = 100
Property: Viscosity, Pa*s (Liquid); method: Concentric cylinders viscometry
Temperature, K	Mass fraction of D-fructose	Mass fraction of THF	Viscosity, Pa*s	uncertainty
283	.2	.45	.000953	
288	.2	.45	.000879	
293	.2	.45	.000805	
298	.2	.45	.000739	
303	.2	.45	.00068	
308	.2	.45	.000628	
313	.2	.45	.000579	
318	.2	.45	.000535	
323	.2	.45	.000493	
328	.2	.45	.000447	
333	.2	.45	.000394	
283	.25	.45	.000783	
288	.25	.45	.000728	
293	.25	.45	.000673	
298	.25	.45	.000622	
303	.25	.45	.000577	
308	.25	.45	.000536	
313	.25	.45	.000499	
318	.25	.45	.000465	
323	.25	.45	.000432	
328	.25	.45	.000378	
333	.25	.45	.000337	

System: D-fructose + THF + water; phases: Liquid
Fixed: Pressure, kPa = 100
Property: Viscosity, Pa*s (Liquid); method: Concentric cylinders viscometry
Temperature, K	Mass fraction of D-fructose	Mass fraction of THF	Viscosity, Pa*s	uncertainty
283	.2	.45	.033996	
288	.2	.45	.025412	
293	.2	.45	.019445	
298	.2	.45	.015069	
303	.2	.45	.011945	
308	.2	.45	.00963	
313	.2	.45	.007877	
318	.2	.45	.006538	
323	.2	.45	.005496	
328	.2	.45	.004688	
333	.2	.45	.004004	
283	.25	.45	.064993	
288	.25	.45	.046744	
293	.25	.45	.034371	
298	.25	.45	.025905	
303	.25	.45	.019967	
308	.25	.45	.015686	
313	.25	.45	.012538	
318	.25	.45	.010151	
323	.25	.45	.008364	
328	.25	.45	.006976	
333	.25	.45	.005874	

System: THF + L-(+)-arabinose + water; phases: Liquid mixture 1, Liquid mixture 2
Fixed: Temperature, K = 298.15
Fixed: Pressure, kPa = 100
Property: Mass fraction of L-(+)-arabinose (Liquid mixture 1); method: Titration method
Mass fraction of THF	Mass fraction of L-(+)-arabinose	uncertainty
.0874	.5805	
.1151	.4762	
.1379	.4128	
.159	.3636	
.1907	.3056	
.2367	.2432	
.2779	.1993	
.3033	.18	
.3175	.1651	
.3326	.1579	
.3401	.1535	
.3501	.1484	
.3645	.142	
.3803	.1351	
.3907	.128	
.4148	.1181	
.4421	.106	
.476	.0956	
.4924	.0895	
.5065	.0842	
.5298	.0798	
.5469	.0748	
.5813	.0669	
.6006	.0598	
.6467	.0512	
.6878	.043	
.746	.0316	

System: THF + L-(+)-arabinose + water; phases: Liquid
Fixed: Pressure, kPa = 100
Property: Mass density, kg/m3 (Liquid); method: Vibrating tube method
Temperature, K	Mass fraction of L-(+)-arabinose	Mass fraction of THF	Mass density, kg/m3	uncertainty
283	.2	.45	922	
288	.2	.45	916	
293	.2	.45	911	
298	.2	.45	906	
303	.2	.45	900	
308	.2	.45	895	
313	.2	.45	889	
318	.2	.45	884	
323	.2	.45	878	
328	.2	.45	873	
333	.2	.45	867	

System: THF + L-(+)-arabinose + water; phases: Liquid
Fixed: Pressure, kPa = 100
Property: Mass density, kg/m3 (Liquid); method: Vibrating tube method
Temperature, K	Mass fraction of L-(+)-arabinose	Mass fraction of THF	Mass density, kg/m3	uncertainty
283	.2	.45	1227	
288	.2	.45	1224	
293	.2	.45	1220	
298	.2	.45	1217	
303	.2	.45	1214	
308	.2	.45	1210	
313	.2	.45	1206	
318	.2	.45	1202	
323	.2	.45	1198	
328	.2	.45	1194	
333	.2	.45	1190	

System: THF + L-(+)-arabinose + water; phases: Liquid
Fixed: Pressure, kPa = 100
Property: Viscosity, Pa*s (Liquid); method: Concentric cylinders viscometry
Temperature, K	Mass fraction of L-(+)-arabinose	Mass fraction of THF	Viscosity, Pa*s	uncertainty
283	.2	.45	.000843	
288	.2	.45	.000779	
293	.2	.45	.000718	
298	.2	.45	.000662	
303	.2	.45	.000613	
308	.2	.45	.000568	
313	.2	.45	.000527	
318	.2	.45	.00049	
323	.2	.45	.000459	
328	.2	.45	.000429	
333	.2	.45	.00036	

System: THF + L-(+)-arabinose + water; phases: Liquid
Fixed: Pressure, kPa = 100
Property: Viscosity, Pa*s (Liquid); method: Concentric cylinders viscometry
Temperature, K	Mass fraction of L-(+)-arabinose	Mass fraction of THF	Viscosity, Pa*s	uncertainty
283	.2	.45	.015037	
288	.2	.45	.012064	
293	.2	.45	.010018	
298	.2	.45	.008544	
303	.2	.45	.007269	
308	.2	.45	.006069	
313	.2	.45	.004914	
318	.2	.45	.003882	
323	.2	.45	.003365	
328	.2	.45	.002943	
333	.2	.45	.002593	

System: THF + water + D-(-)-arabinose; phases: Liquid mixture 1, Liquid mixture 2
Fixed: Temperature, K = 298.15
Fixed: Pressure, kPa = 100
Property: Mass fraction of D-(-)-arabinose (Liquid mixture 1); method: Titration method
Mass fraction of THF	Mass fraction of D-(-)-arabinose	uncertainty
.0204	.6357	
.0352	.5547	
.0625	.46	
.1184	.3612	
.2365	.2282	
.3073	.1854	
.3268	.1704	
.3426	.1603	
.3647	.146	
.3758	.1399	
.3844	.1357	
.3973	.1296	
.4066	.1252	
.4216	.1187	
.4319	.1147	
.4439	.1095	
.457	.1039	
.4786	.0993	
.4991	.0904	
.5237	.0864	
.5546	.0783	
.5927	.0669	
.6151	.0613	
.6388	.054	
.69	.0422	
.7385	.0363	

System: THF + water + D-(-)-arabinose; phases: Liquid
Fixed: Pressure, kPa = 100
Property: Mass density, kg/m3 (Liquid); method: Vibrating tube method
Temperature, K	Mass fraction of D-(-)-arabinose	Mass fraction of THF	Mass density, kg/m3	uncertainty
283	.2	.45	919	
288	.2	.45	913	
293	.2	.45	908	
298	.2	.45	902	
303	.2	.45	897	
308	.2	.45	892	
313	.2	.45	886	
318	.2	.45	881	
323	.2	.45	875	
328	.2	.45	870	
333	.2	.45	864	

System: THF + water + D-(-)-arabinose; phases: Liquid
Fixed: Pressure, kPa = 100
Property: Mass density, kg/m3 (Liquid); method: Vibrating tube method
Temperature, K	Mass fraction of D-(-)-arabinose	Mass fraction of THF	Mass density, kg/m3	uncertainty
283	.2	.45	919	
288	.2	.45	913	
293	.2	.45	908	
298	.2	.45	902	
303	.2	.45	897	
308	.2	.45	892	
313	.2	.45	886	
318	.2	.45	881	
323	.2	.45	875	
328	.2	.45	870	
333	.2	.45	864	

System: THF + water + D-(-)-arabinose; phases: Liquid
Fixed: Pressure, kPa = 100
Property: Viscosity, Pa*s (Liquid); method: Concentric cylinders viscometry
Temperature, K	Mass fraction of D-(-)-arabinose	Mass fraction of THF	Viscosity, Pa*s	uncertainty
283	.2	.45	.000841	
288	.2	.45	.000781	
293	.2	.45	.00072	
298	.2	.45	.000666	
303	.2	.45	.000617	
308	.2	.45	.000572	
313	.2	.45	.000531	
318	.2	.45	.000494	
323	.2	.45	.000463	
328	.2	.45	.000424	
333	.2	.45	.000357	

System: THF + water + D-(-)-arabinose; phases: Liquid
Fixed: Pressure, kPa = 100
Property: Viscosity, Pa*s (Liquid); method: Concentric cylinders viscometry
Temperature, K	Mass fraction of D-(-)-arabinose	Mass fraction of THF	Viscosity, Pa*s	uncertainty
283	.2	.45	.015037	
288	.2	.45	.012064	
293	.2	.45	.010018	
298	.2	.45	.008544	
303	.2	.45	.007269	
308	.2	.45	.006069	
313	.2	.45	.004914	
318	.2	.45	.003882	
323	.2	.45	.003365	
328	.2	.45	.002943	
333	.2	.45	.002593	

System: THF + D-mannose + water; phases: Liquid mixture 1, Liquid mixture 2
Fixed: Temperature, K = 298.15
Fixed: Pressure, kPa = 100
Property: Mass fraction of D-mannose (Liquid mixture 1); method: Titration method
Mass fraction of THF	Mass fraction of D-mannose	uncertainty
.0498	.7176	
.0623	.6628	
.0732	.623	
.0824	.5775	
.0929	.5462	
.1	.5175	
.1142	.4754	
.1211	.4593	
.1398	.4207	
.1507	.3993	
.1594	.3789	
.1748	.3617	
.1872	.3399	
.2574	.2711	
.2686	.2574	
.2792	.2437	
.288	.2321	
.2979	.223	
.3222	.2043	
.3601	.1816	
.4258	.1506	
.4566	.1374	
.5453	.1064	
.6327	.0832	
.6538	.0784	

System: THF + D-mannose + water; phases: Liquid
Fixed: Pressure, kPa = 100
Property: Mass density, kg/m3 (Liquid); method: Vibrating tube method
Temperature, K	Mass fraction of D-mannose	Mass fraction of THF	Mass density, kg/m3	uncertainty
283	.2	.45	934	
288	.2	.45	928	
293	.2	.45	923	
298	.2	.45	918	
303	.2	.45	913	
308	.2	.45	907	
313	.2	.45	903	
318	.2	.45	899	
323	.2	.45	894	
328	.2	.45	889	
333	.2	.45	883	
283	.25	.45	914	
288	.25	.45	909	
293	.25	.45	903	
298	.25	.45	898	
303	.25	.45	893	
308	.25	.45	887	
313	.25	.45	882	
318	.25	.45	876	
323	.25	.45	871	
328	.25	.45	865	
333	.25	.45	859	

System: THF + D-mannose + water; phases: Liquid
Fixed: Pressure, kPa = 100
Property: Mass density, kg/m3 (Liquid); method: Vibrating tube method
Temperature, K	Mass fraction of D-mannose	Mass fraction of THF	Mass density, kg/m3	uncertainty
283	.2	.45	1223	
288	.2	.45	1220	
293	.2	.45	1217	
298	.2	.45	1214	
303	.2	.45	1211	
308	.2	.45	1208	
313	.2	.45	1205	
318	.2	.45	1202	
323	.2	.45	1198	
328	.2	.45	1195	
333	.2	.45	1191	
283	.25	.45	1249	
288	.25	.45	1246	
293	.25	.45	1243	
298	.25	.45	1240	
303	.25	.45	1237	
308	.25	.45	1234	
313	.25	.45	1231	
318	.25	.45	1228	
323	.25	.45	1224	
328	.25	.45	1221	
333	.25	.45	1217	

System: THF + D-mannose + water; phases: Liquid
Fixed: Pressure, kPa = 100
Property: Viscosity, Pa*s (Liquid); method: Concentric cylinders viscometry
Temperature, K	Mass fraction of D-mannose	Mass fraction of THF	Viscosity, Pa*s	uncertainty
283	.2	.45	.001144	
288	.2	.45	.001046	
293	.2	.45	.00095	
298	.2	.45	.000865	
303	.2	.45	.000791	
308	.2	.45	.000725	
313	.2	.45	.000658	
318	.2	.45	.000606	
323	.2	.45	.000557	
328	.2	.45	.000519	
333	.2	.45	.000448	
283	.25	.45	.000701	
288	.25	.45	.00065	
293	.25	.45	.000604	
298	.25	.45	.000562	
303	.25	.45	.000524	
308	.25	.45	.000489	
313	.25	.45	.000457	
318	.25	.45	.000431	
323	.25	.45	.000393	
328	.25	.45	.00034	
333	.25	.45	.000306	

System: THF + D-mannose + water; phases: Liquid
Fixed: Pressure, kPa = 100
Property: Viscosity, Pa*s (Liquid); method: Concentric cylinders viscometry
Temperature, K	Mass fraction of D-mannose	Mass fraction of THF	Viscosity, Pa*s	uncertainty
283	.2	.45	.035529	
288	.2	.45	.02671	
293	.2	.45	.020439	
298	.2	.45	.015972	
303	.2	.45	.012722	
308	.2	.45	.010304	
313	.2	.45	.008474	
318	.2	.45	.007066	
323	.2	.45	.005979	
328	.2	.45	.00516	
333	.2	.45	.004465	
283	.25	.45	.056255	
288	.25	.45	.04119	
293	.25	.45	.030784	
298	.25	.45	.023544	
303	.25	.45	.018388	
308	.25	.45	.014625	
313	.25	.45	.011825	
318	.25	.45	.009705	
323	.25	.45	.00809	
328	.25	.45	.006765	
333	.25	.45	.005789	

System: D(+)-glucose + THF + water; phases: Liquid mixture 1, Liquid mixture 2
Fixed: Temperature, K = 298.15
Fixed: Pressure, kPa = 100
Property: Mass fraction of D(+)-glucose (Liquid mixture 1); method: Titration method
Mass fraction of THF	Mass fraction of D(+)-glucose	uncertainty
.0269	.7428	
.0412	.6715	
.0446	.6506	
.0621	.588	
.065	.5722	
.0755	.5444	
.0787	.5295	
.0828	.5118	
.088	.4975	
.0982	.4654	
.1061	.4458	
.1132	.4283	
.1198	.412	
.1351	.3817	
.1576	.3431	
.228	.2581	
.2516	.2328	
.2831	.2025	
.3036	.1767	
.3166	.1686	
.3273	.1615	
.3412	.1542	
.3524	.1485	
.3656	.142	
.3737	.1375	
.4379	.0911	
.4821	.0689	
.53	.0491	
.645	.0183	
.6779	.0131	
.7525	.0056	

System: D(+)-glucose + THF + water; phases: Liquid
Fixed: Pressure, kPa = 100
Property: Mass density, kg/m3 (Liquid); method: Vibrating tube method
Temperature, K	Mass fraction of D(+)-glucose	Mass fraction of THF	Mass density, kg/m3	uncertainty
283	.2	.45	916	
288	.2	.45	911	
293	.2	.45	905	
298	.2	.45	900	
303	.2	.45	895	
308	.2	.45	889	
313	.2	.45	884	
318	.2	.45	879	
323	.2	.45	873	
328	.2	.45	867	
333	.2	.45	862	
283	.25	.45	917	
288	.25	.45	911	
293	.25	.45	906	
298	.25	.45	901	
303	.25	.45	895	
308	.25	.45	890	
313	.25	.45	885	
318	.25	.45	879	
323	.25	.45	874	
328	.25	.45	868	
333	.25	.45	862	

System: D(+)-glucose + THF + water; phases: Liquid
Fixed: Pressure, kPa = 100
Property: Mass density, kg/m3 (Liquid); method: Vibrating tube method
Temperature, K	Mass fraction of D(+)-glucose	Mass fraction of THF	Mass density, kg/m3	uncertainty
283	.2	.45	1230	
288	.2	.45	1227	
293	.2	.45	1224	
298	.2	.45	1222	
303	.2	.45	1219	
308	.2	.45	1216	
313	.2	.45	1212	
318	.2	.45	1209	
323	.2	.45	1202	
328	.2	.45	1191	
333	.2	.45	1193	
283	.25	.45	1261	
288	.25	.45	1258	
293	.25	.45	1255	
298	.25	.45	1253	
303	.25	.45	1250	
308	.25	.45	1247	
313	.25	.45	1243	
318	.25	.45	1240	
323	.25	.45	1237	
328	.25	.45	1234	
333	.25	.45	1230	

System: D(+)-glucose + THF + water; phases: Liquid
Fixed: Pressure, kPa = 100
Property: Viscosity, Pa*s (Liquid); method: Concentric cylinders viscometry
Temperature, K	Mass fraction of D(+)-glucose	Mass fraction of THF	Viscosity, Pa*s	uncertainty
283	.2	.45	.000754	
288	.2	.45	.000703	
293	.2	.45	.000651	
298	.2	.45	.000603	
303	.2	.45	.000562	
308	.2	.45	.000521	
313	.2	.45	.000485	
318	.2	.45	.000455	
323	.2	.45	.00042	
328	.2	.45	.000359	
333	.2	.45	.000336	
283	.25	.45	.000766	
288	.25	.45	.000712	
293	.25	.45	.000659	
298	.25	.45	.000611	
303	.25	.45	.000567	
308	.25	.45	.000527	
313	.25	.45	.000491	
318	.25	.45	.000459	
323	.25	.45	.00043	
328	.25	.45	.00036	
333	.25	.45	.000332	

System: D(+)-glucose + THF + water; phases: Liquid
Fixed: Pressure, kPa = 100
Property: Viscosity, Pa*s (Liquid); method: Concentric cylinders viscometry
Temperature, K	Mass fraction of D(+)-glucose	Mass fraction of THF	Viscosity, Pa*s	uncertainty
283	.2	.45	.043455	
288	.2	.45	.03235	
293	.2	.45	.024551	
298	.2	.45	.019032	
303	.2	.45	.015054	
308	.2	.45	.012119	
313	.2	.45	.00992	
318	.2	.45	.008262	
323	.2	.45	.0069	
328	.2	.45	.005769	
333	.2	.45	.004746	
283	.25	.45	.086823	
288	.25	.45	.062078	
293	.25	.45	.045432	
298	.25	.45	.034079	
303	.25	.45	.026145	
308	.25	.45	.020478	
313	.25	.45	.016349	
318	.25	.45	.013273	
323	.25	.45	.011051	
328	.25	.45	.009289	
333	.25	.45	.007531	

System: D-(+)-sucrose + THF + water; phases: Liquid mixture 1, Liquid mixture 2
Fixed: Temperature, K = 298.15
Fixed: Pressure, kPa = 100
Property: Mass fraction of D-(+)-sucrose (Liquid mixture 1); method: Titration method
Mass fraction of THF	Mass fraction of D-(+)-sucrose	uncertainty
.0314	.8226	
.053	.7131	
.0806	.5919	
.1302	.4666	
.1421	.4437	
.1816	.3843	
.1867	.3729	
.1994	.3561	
.2053	.348	
.2176	.3352	
.2349	.314	
.2484	.3006	
.261	.2892	
.2784	.2746	
.2899	.2635	
.3129	.2465	
.331	.231	
.3895	.1998	
.4257	.1784	
.4424	.1718	
.4634	.1623	
.4861	.1522	
.513	.1407	
.5461	.1249	
.5779	.1114	
.6461	.0939	
.6628	.0896	

System: D-(+)-sucrose + THF + water; phases: Liquid
Fixed: Pressure, kPa = 100
Property: Mass density, kg/m3 (Liquid); method: Vibrating tube method
Temperature, K	Mass fraction of D-(+)-sucrose	Mass fraction of THF	Mass density, kg/m3	uncertainty
283	.2	.45	967	
288	.2	.45	962	
293	.2	.45	957	
298	.2	.45	953	
303	.2	.45	948	
308	.2	.45	943	
313	.2	.45	937	
318	.2	.45	930	
323	.2	.45	923	
328	.2	.45	912	
333	.2	.45	899	
283	.25	.45	920	
288	.25	.45	914	
293	.25	.45	909	
298	.25	.45	904	
303	.25	.45	899	
308	.25	.45	893	
313	.25	.45	888	
318	.25	.45	882	
323	.25	.45	877	
328	.25	.45	871	
333	.25	.45	866	

System: D-(+)-sucrose + THF + water; phases: Liquid
Fixed: Pressure, kPa = 100
Property: Mass density, kg/m3 (Liquid); method: Vibrating tube method
Temperature, K	Mass fraction of D-(+)-sucrose	Mass fraction of THF	Mass density, kg/m3	uncertainty
283	.2	.45	1226	
288	.2	.45	1223	
293	.2	.45	1220	
298	.2	.45	1217	
303	.2	.45	1214	
308	.2	.45	1211	
313	.2	.45	1207	
318	.2	.45	1204	
323	.2	.45	1200	
328	.2	.45	1197	
333	.2	.45	1195	
283	.25	.45	1251	
288	.25	.45	1248	
293	.25	.45	1245	
298	.25	.45	1242	
303	.25	.45	1239	
308	.25	.45	1236	
313	.25	.45	1232	
318	.25	.45	1229	
323	.25	.45	1225	
328	.25	.45	1222	
333	.25	.45	1219	

System: D-(+)-sucrose + THF + water; phases: Liquid
Fixed: Pressure, kPa = 100
Property: Viscosity, Pa*s (Liquid); method: Concentric cylinders viscometry
Temperature, K	Mass fraction of D-(+)-sucrose	Mass fraction of THF	Viscosity, Pa*s	uncertainty
283	.2	.45	.000859	
288	.2	.45	.0008	
293	.2	.45	.000728	
298	.2	.45	.000679	
303	.2	.45	.000629	
308	.2	.45	.000579	
313	.2	.45	.000538	
318	.2	.45	.000488	
323	.2	.45	.000441	
328	.2	.45	.000402	
333	.2	.45	.000369	
283	.25	.45	.000818	
288	.25	.45	.000759	
293	.25	.45	.000699	
298	.25	.45	.000645	
303	.25	.45	.000597	
308	.25	.45	.000553	
313	.25	.45	.000513	
318	.25	.45	.000478	
323	.25	.45	.000443	
328	.25	.45	.000403	
333	.25	.45	.000346	

System: D-(+)-sucrose + THF + water; phases: Liquid
Fixed: Pressure, kPa = 100
Property: Viscosity, Pa*s (Liquid); method: Concentric cylinders viscometry
Temperature, K	Mass fraction of D-(+)-sucrose	Mass fraction of THF	Viscosity, Pa*s	uncertainty
283	.2	.45	.068015	
288	.2	.45	.049558	
293	.2	.45	.036837	
298	.2	.45	.028018	
303	.2	.45	.021758	
308	.2	.45	.017234	
313	.2	.45	.01419	
318	.2	.45	.011847	
323	.2	.45	.009966	
328	.2	.45	.008411	
333	.2	.45	.00711	
283	.25	.45	.12875	
288	.25	.45	.090789	
293	.25	.45	.065262	
298	.25	.45	.048109	
303	.25	.45	.036018	
308	.25	.45	.027731	
313	.25	.45	.021768	
318	.25	.45	.017453	
323	.25	.45	.014215	
328	.25	.45	.011737	
333	.25	.45	.009816	

System: THF + D-(+)-maltose monohydrate + water; phases: Liquid mixture 1, Liquid mixture 2
Fixed: Temperature, K = 298.15
Fixed: Pressure, kPa = 100
Property: Mass fraction of D-(+)-maltose monohydrate (Liquid mixture 1); method: Titration method
Mass fraction of THF	Mass fraction of D-(+)-maltose monohydrate	uncertainty
.055	.5704	
.072	.5246	
.1464	.3943	
.1727	.3626	
.2073	.3365	
.2434	.2949	
.2589	.278	
.3027	.247	
.2742	.2641	
.33	.2326	
.3529	.2232	
.3768	.211	
.4029	.1978	
.4255	.1869	
.4634	.1669	
.502	.1541	
.5409	.136	
.5833	.1131	
.6242	.0994	

System: THF + D-(+)-maltose monohydrate + water; phases: Liquid
Fixed: Pressure, kPa = 100
Property: Mass density, kg/m3 (Liquid); method: Vibrating tube method
Temperature, K	Mass fraction of D-(+)-maltose monohydrate	Mass fraction of THF	Mass density, kg/m3	uncertainty
283	.2	.45	926	
288	.2	.45	921	
293	.2	.45	916	
298	.2	.45	910	
303	.2	.45	905	
308	.2	.45	900	
313	.2	.45	894	
318	.2	.45	889	
323	.2	.45	884	
328	.2	.45	878	
333	.2	.45	873	
283	.25	.45	924	
288	.25	.45	918	
293	.25	.45	913	
298	.25	.45	908	
303	.25	.45	902	
308	.25	.45	897	
313	.25	.45	892	
318	.25	.45	886	
323	.25	.45	881	
328	.25	.45	875	
333	.25	.45	870	

System: THF + D-(+)-maltose monohydrate + water; phases: Liquid
Fixed: Pressure, kPa = 100
Property: Mass density, kg/m3 (Liquid); method: Vibrating tube method
Temperature, K	Mass fraction of D-(+)-maltose monohydrate	Mass fraction of THF	Mass density, kg/m3	uncertainty
283	.2	.45	1217	
288	.2	.45	1213	
293	.2	.45	1211	
298	.2	.45	1208	
303	.2	.45	1205	
308	.2	.45	1202	
313	.2	.45	1198	
318	.2	.45	1194	
323	.2	.45	1191	
328	.2	.45	1187	
333	.2	.45	1183	
283	.25	.45	1239	
288	.25	.45	1236	
293	.25	.45	1233	
298	.25	.45	1230	
303	.25	.45	1226	
308	.25	.45	1223	
313	.25	.45	1220	
318	.25	.45	1216	
323	.25	.45	1213	
328	.25	.45	1209	
333	.25	.45	1205	

System: THF + D-(+)-maltose monohydrate + water; phases: Liquid
Fixed: Pressure, kPa = 100
Property: Viscosity, Pa*s (Liquid); method: Concentric cylinders viscometry
Temperature, K	Mass fraction of D-(+)-maltose monohydrate	Mass fraction of THF	Viscosity, Pa*s	uncertainty
283	.2	.45	.001145	
288	.2	.45	.001044	
293	.2	.45	.000946	
298	.2	.45	.00086	
303	.2	.45	.000786	
308	.2	.45	.00072	
313	.2	.45	.000662	
318	.2	.45	.000611	
323	.2	.45	.000567	
328	.2	.45	.000527	
333	.2	.45	.000444	
283	.25	.45	.00096	
288	.25	.45	.000877	
293	.25	.45	.000802	
298	.25	.45	.000735	
303	.25	.45	.000676	
308	.25	.45	.000623	
313	.25	.45	.000575	
318	.25	.45	.000532	
323	.25	.45	.000495	
328	.25	.45	.000457	
333	.25	.45	.000383	

System: THF + D-(+)-maltose monohydrate + water; phases: Liquid
Fixed: Pressure, kPa = 100
Property: Viscosity, Pa*s (Liquid); method: Concentric cylinders viscometry
Temperature, K	Mass fraction of D-(+)-maltose monohydrate	Mass fraction of THF	Viscosity, Pa*s	uncertainty
283	.2	.45	.273631	
288	.2	.45	.194452	
293	.2	.45	.142223	
298	.2	.45	.106831	
303	.2	.45	.08207	
308	.2	.45	.064322	
313	.2	.45	.051326	
318	.2	.45	.042421	
323	.2	.45	.035767	
328	.2	.45	.030057	
333	.2	.45	.025415	
283	.25	.45	.58794	
288	.25	.45	.40535	
293	.25	.45	.28734	
298	.25	.45	.20958	
303	.25	.45	.15673	
308	.25	.45	.11993	
313	.25	.45	.096531	
318	.25	.45	.078186	
323	.25	.45	.064692	
328	.25	.45	.053574	
333	.25	.45	.044942	
