Measured thermophysical data. Enhancement of bio-oil derived chemicals in aqueous phase using ionic liquids: Experimental and COSMO-SAC predictions using a modified hydrogen bonding expression
Source: Fluid Phase Equilib., 2015, 10.1016/j.fluid.2015.04.029
Compound 1: water, H2O, purity 99.8%
Compound 2: acetic acid, C2H4O2, purity 99%
Compound 3: furfural, C5H4O2, purity 99%
Compound 4: 1-butyl-3-methylimidazolium bis[(trifluoromethyl)sulfonyl]imide, C10H15F6N3O4S2, purity 98%

System: acetic acid + water + 1-butyl-3-methylimidazolium bis[(trifluoromethyl)sulfonyl]imide; phases: Liquid mixture 2, Liquid mixture 1
Property: Mole fraction of 1-butyl-3-methylimidazolium bis[(trifluoromethyl)sulfonyl]imide (Liquid mixture 2); method: Other
Property: Mole fraction of acetic acid (Liquid mixture 1); method: Other
Property: Mole fraction of 1-butyl-3-methylimidazolium bis[(trifluoromethyl)sulfonyl]imide (Liquid mixture 1); method: Other
Temperature, K	Pressure, kPa	Mole fraction of acetic acid	Mole fraction of 1-butyl-3-methylimidazolium bis[(trifluoromethyl)sulfonyl]imide	uncertainty	Mole fraction of acetic acid	uncertainty	Mole fraction of 1-butyl-3-methylimidazolium bis[(trifluoromethyl)sulfonyl]imide	uncertainty
298.15	101.325	.0156	0	.001	.0335	.001	.6317	.001
298.15	101.325	.0223	0	.001	.0592	.001	.5917	.001
298.15	101.325	.0337	0	.001	.078	.001	.5854	.001
298.15	101.325	.0457	0	.001	.1043	.001	.5541	.001
298.15	101.325	.0684	0	.001	.1446	.001	.4594	.001
298.15	101.325	.0881	0	.001	.162	.001	.4408	.001

System: furfural + water + 1-butyl-3-methylimidazolium bis[(trifluoromethyl)sulfonyl]imide; phases: Liquid mixture 2, Liquid mixture 1
Property: Mole fraction of 1-butyl-3-methylimidazolium bis[(trifluoromethyl)sulfonyl]imide (Liquid mixture 2); method: Other
Property: Mole fraction of furfural (Liquid mixture 1); method: Other
Property: Mole fraction of 1-butyl-3-methylimidazolium bis[(trifluoromethyl)sulfonyl]imide (Liquid mixture 1); method: Other
Temperature, K	Pressure, kPa	Mole fraction of furfural	Mole fraction of 1-butyl-3-methylimidazolium bis[(trifluoromethyl)sulfonyl]imide	uncertainty	Mole fraction of furfural	uncertainty	Mole fraction of 1-butyl-3-methylimidazolium bis[(trifluoromethyl)sulfonyl]imide	uncertainty
298.15	101.325	.0008	.0004	.001	.1319	.001	.5653	.001
298.15	101.325	.0022	.0002	.001	.221	.001	.4617	.001
298.15	101.325	.0036	.0002	.001	.384	.001	.34	.001
298.15	101.325	.0055	.0004	.001	.4986	.001	.2873	.001
298.15	101.325	.0067	0	.001	.5681	.001	.1913	.001

System: water + 1-butyl-3-methylimidazolium bis[(trifluoromethyl)sulfonyl]imide; phases: Liquid mixture 1, Liquid mixture 2
Property: Mole fraction of water (Liquid mixture 1); method: Other
Temperature, K	Pressure, kPa	Mole fraction of water	uncertainty
298.15	101.325	.3169	.001

System: water + 1-butyl-3-methylimidazolium bis[(trifluoromethyl)sulfonyl]imide; phases: Liquid mixture 2, Liquid mixture 1
Property: Mole fraction of 1-butyl-3-methylimidazolium bis[(trifluoromethyl)sulfonyl]imide (Liquid mixture 2); method: Other
Temperature, K	Pressure, kPa	Mole fraction of 1-butyl-3-methylimidazolium bis[(trifluoromethyl)sulfonyl]imide	uncertainty
298.15	101.325	.0004	.001
