Measured thermophysical data. Measurement and correlation of the interfacial tension for paraffin + CO2 and (CO2+N2) mixture gas at elevated temperatures and pressures
Source: Fluid Phase Equilib., 2017, 10.1016/j.fluid.2017.02.012
Compound 1: n-nonane, C9H20, purity 99.0%
Compound 2: n-undecane, C11H24, purity 99.0%
Compound 3: n-tridecane, C13H28, purity 98.5%
Compound 4: n-pentadecane, C15H32, purity 99.0%
Compound 5: n-heptadecane, C17H36, purity 99.0%
Compound 6: carbon dioxide, CO2, purity 99.9%
Compound 7: nitrogen, N2, purity 99.9%

System: n-nonane + carbon dioxide; phases: Liquid, Gas
Property: Interfacial tension, N/m (Liquid); method: Pendant drop shape
Temperature, K	Pressure, kPa	Interfacial tension, N/m	uncertainty
313.15	500	.02026	
313.15	1490	.01776	
313.15	2460	.01519	
313.15	3500	.01277	
313.15	4500	.01011	
313.15	5490	.00735	
313.15	6620	.00428	
313.15	7290	.0025	
333.15	390	.0189	
333.15	1440	.01661	
333.15	2400	.01476	
333.15	3320	.01298	
333.15	4460	.01105	
333.15	5400	.00901	
333.15	6220	.00755	
333.15	7290	.00561	
333.15	8230	.00383	
353.15	1080	.01612	
353.15	2100	.01428	
353.15	3090	.01281	
353.15	4130	.011	
353.15	5130	.00964	
353.15	6030	.00829	
353.15	6990	.00695	
353.15	8000	.00567	
353.15	9400	.00385	
373.15	1060	.0146	
373.15	2110	.01315	
373.15	3060	.01185	
373.15	4190	.01043	
373.15	5200	.00922	
373.15	6210	.00793	
373.15	7000	.00704	
373.15	7990	.00608	
373.15	9340	.00461	
373.15	10460	.00358	
393.15	940	.01332	
393.15	3080	.01078	
393.15	5700	.00817	
393.15	9300	.0047	
393.15	11410	.00298	

System: carbon dioxide + n-undecane; phases: Liquid, Gas
Property: Interfacial tension, N/m (Liquid); method: Pendant drop shape
Temperature, K	Pressure, kPa	Interfacial tension, N/m	uncertainty
313.15	340	.02219	
313.15	1410	.01954	
313.15	2530	.01691	
313.15	3590	.01436	
313.15	4700	.01115	
313.15	5630	.00847	
313.15	6540	.00582	
313.15	7100	.00375	
333.15	350	.02059	
333.15	1700	.01796	
333.15	3240	.01487	
333.15	4730	.01215	
333.15	5810	.00986	
333.15	7190	.00745	
333.15	8000	.00582	
333.15	8910	.00412	
353.15	440	.01864	
353.15	1800	.01641	
353.15	3430	.01414	
353.15	4930	.01174	
353.15	6480	.00953	
353.15	7890	.00753	
353.15	8940	.00599	
353.15	10190	.00439	
373.15	410	.01705	
373.15	1880	.01522	
373.15	3100	.01386	
373.15	4410	.01226	
373.15	5910	.01019	
373.15	7020	.00884	
373.15	8600	.00705	
373.15	9900	.00573	
373.15	11680	.00399	
393.15	530	.01569	
393.15	3300	.01238	
393.15	5820	.00976	
393.15	9300	.00653	
393.15	12810	.00355	

System: carbon dioxide + n-tridecane; phases: Liquid, Gas
Property: Interfacial tension, N/m (Liquid); method: Pendant drop shape
Temperature, K	Pressure, kPa	Interfacial tension, N/m	uncertainty
313.15	550	.0223	
313.15	2100	.01858	
313.15	3240	.01583	
313.15	4300	.01306	
313.15	5300	.01043	
313.15	5940	.00857	
313.15	7490	.0038	
333.15	330	.02141	
333.15	1360	.01962	
333.15	2440	.01754	
333.15	3580	.01534	
333.15	5410	.01187	
333.15	5930	.01074	
333.15	6830	.00908	
333.15	8000	.00691	
333.15	8780	.00538	
333.15	9410	.00425	
333.15	10010	.00324	
353.15	440	.01997	
353.15	1760	.01782	
353.15	3190	.01575	
353.15	4830	.01315	
353.15	5700	.01184	
353.15	6050	.0115	
353.15	7500	.00924	
353.15	8990	.0073	
353.15	10030	.00575	
353.15	10880	.00476	
353.15	11770	.00376	
373.15	540	.01867	
373.15	2380	.01603	
373.15	4400	.01313	
373.15	5790	.01168	
373.15	8100	.00903	
373.15	9910	.00693	
373.15	12260	.00457	
373.15	13710	.00332	
393.15	410	.01704	
393.15	4630	.0126	
393.15	8730	.00827	
393.15	13580	.00432	

System: carbon dioxide + n-pentadecane; phases: Liquid, Gas
Property: Interfacial tension, N/m (Liquid); method: Pendant drop shape
Temperature, K	Pressure, kPa	Interfacial tension, N/m	uncertainty
313.15	430	.02165	
313.15	1100	.02048	
313.15	2090	.01838	
313.15	3090	.01615	
313.15	4080	.01404	
313.15	5090	.01141	
313.15	6090	.00891	
313.15	6890	.00625	
313.15	8060	.00269	
333.15	360	.02084	
333.15	1380	.01961	
333.15	2390	.01757	
333.15	3490	.0157	
333.15	4330	.01441	
333.15	5290	.01281	
333.15	5990	.01175	
333.15	7290	.00917	
333.15	8400	.00686	
333.15	9860	.00422	
353.15	580	.01983	
353.15	1630	.01811	
353.15	2790	.01701	
353.15	3610	.01563	
353.15	4630	.0142	
353.15	5700	.01285	
353.15	6630	.01153	
353.15	7720	.00979	
353.15	8560	.00869	
353.15	9490	.00732	
353.15	10730	.00587	
353.15	11560	.00482	
353.15	12000	.00424	
373.15	1080	.01821	
373.15	2060	.01661	
373.15	3240	.01525	
373.15	4280	.01453	
373.15	5390	.01301	
373.15	6240	.01208	
373.15	7340	.01081	
373.15	8340	.0096	
373.15	9400	.00842	
373.15	10490	.00737	
373.15	12060	.00574	
373.15	13190	.00464	
373.15	13960	.00406	
393.15	3280	.01472	
393.15	5680	.01236	
393.15	8600	.00958	
393.15	11400	.00686	
393.15	14720	.00422	

System: carbon dioxide + n-heptadecane; phases: Liquid, Gas
Property: Interfacial tension, N/m (Liquid); method: Pendant drop shape
Temperature, K	Pressure, kPa	Interfacial tension, N/m	uncertainty
313.15	390	.02511	
313.15	1300	.02273	
313.15	2350	.02026	
313.15	3500	.01714	
313.15	5000	.01327	
313.15	6500	.0093	
313.15	8000	.00534	
313.15	9000	.0027	
333.15	750	.02256	
333.15	1860	.02055	
333.15	2830	.01833	
333.15	3810	.0166	
333.15	4850	.01457	
333.15	5930	.01256	
333.15	7090	.0102	
333.15	8280	.00807	
333.15	9630	.0057	
333.15	10600	.00426	
353.15	940	.01998	
353.15	1910	.01881	
353.15	3030	.0176	
353.15	4000	.01602	
353.15	5220	.01429	
353.15	6110	.01299	
353.15	7210	.01123	
353.15	8580	.00936	
353.15	9500	.00834	
353.15	10740	.00677	
353.15	12020	.00527	
353.15	13180	.00415	
373.15	920	.0192	
373.15	2390	.01781	
373.15	4000	.01565	
373.15	5490	.01383	
373.15	7260	.0118	
373.15	9000	.00993	
373.15	10800	.0081	
373.15	12560	.00621	
373.15	13470	.00547	
373.15	14640	.00443	
393.15	1190	.01838	
393.15	4320	.01469	
393.15	6780	.01243	
393.15	10600	.00846	
393.15	13920	.00587	

System: n-nonane + carbon dioxide + nitrogen; phases: Liquid, Gas
Fixed: Mole fraction of carbon dioxide = .75
Property: Interfacial tension, N/m (Liquid); method: Pendant drop shape
Temperature, K	Pressure, kPa	Interfacial tension, N/m	uncertainty
313.25	230	.02106	
313.25	3000	.01584	
313.25	4860	.01243	
313.25	6080	.01033	
313.25	6730	.00938	
313.25	8420	.00694	
313.25	9640	.00527	
313.25	10090	.00484	
333.15	280	.01924	
333.15	2230	.01607	
333.15	4190	.01341	
333.15	5500	.01149	
333.15	6320	.01033	
333.15	8030	.00809	
333.15	9460	.00665	
333.15	10460	.00567	
333.15	11060	.00513	
333.15	11540	.00463	
353.25	330	.01727	
353.25	1700	.01559	
353.25	3280	.01339	
353.25	4860	.01173	
353.25	6160	.01016	
353.25	7530	.00877	
353.25	8580	.00792	
353.25	9710	.00686	
353.25	10620	.00605	
353.25	12630	.0046	
373.15	220	.01535	
373.15	2110	.01354	
373.15	4040	.01154	
373.15	6010	.0098	
373.15	7800	.00816	
373.15	10390	.00621	
373.15	11340	.00559	
373.15	13610	.00417	
393.15	290	.01388	
393.15	3390	.01139	
393.15	6320	.00859	
393.15	8230	.00728	
393.15	10310	.00595	
393.15	12000	.00496	
393.15	14560	.00355	

System: carbon dioxide + n-undecane + nitrogen; phases: Liquid, Gas
Fixed: Mole fraction of carbon dioxide = .75
Property: Interfacial tension, N/m (Liquid); method: Pendant drop shape
Temperature, K	Pressure, kPa	Interfacial tension, N/m	uncertainty
313.15	290	.02229	
313.15	1500	.02012	
313.15	2900	.01721	
313.15	4200	.01475	
313.15	5560	.01264	
313.15	7050	.01065	
313.15	8440	.00871	
313.15	9920	.00672	
313.15	10820	.00573	
333.15	250	.02087	
333.15	1530	.01889	
333.15	3480	.01594	
333.15	5430	.01315	
333.15	6800	.01135	
333.15	7800	.00999	
333.15	9240	.00882	
333.15	10830	.00723	
333.15	12100	.00619	
353.15	290	.01909	
353.15	1580	.01754	
353.15	3230	.01529	
353.15	5000	.01335	
353.15	6200	.01196	
353.15	7490	.01081	
353.15	8400	.00975	
353.15	10140	.0085	
353.15	11800	.00722	
353.15	13270	.006	
373.15	290	.01751	
373.15	1880	.01572	
373.15	3890	.01393	
373.15	5600	.01203	
373.15	7030	.01065	
373.15	8950	.00906	
373.15	10840	.00783	
373.15	12690	.00669	
373.15	14370	.00556	
393.15	300	.016	
393.15	2930	.01338	
393.15	5380	.01155	
393.15	7320	.00984	
393.15	9460	.00843	
393.15	11510	.00707	
393.15	15390	.00504	

System: carbon dioxide + n-tridecane + nitrogen; phases: Liquid, Gas
Fixed: Mole fraction of carbon dioxide = .75
Property: Interfacial tension, N/m (Liquid); method: Pendant drop shape
Temperature, K	Pressure, kPa	Interfacial tension, N/m	uncertainty
313.15	250	.02293	
313.15	1700	.02005	
313.15	3230	.01753	
313.15	4660	.0152	
313.15	6630	.01277	
313.15	8670	.00988	
313.15	10700	.00704	
313.15	11510	.00642	
333.15	550	.02127	
333.15	2000	.0192	
333.15	3500	.01711	
333.15	5030	.01499	
333.15	6490	.01346	
333.15	8010	.01104	
333.15	8140	.01113	
333.15	9520	.01009	
333.15	10630	.00872	
333.15	11900	.00759	
333.15	12910	.00685	
353.15	640	.02008	
353.15	2260	.01787	
353.15	3760	.01633	
353.15	5390	.01428	
353.15	6960	.01306	
353.15	8650	.01096	
353.15	8800	.01071	
353.15	10310	.00983	
353.15	11570	.00852	
353.15	13010	.00741	
353.15	14200	.00679	
373.15	700	.01839	
373.15	2400	.01662	
373.15	3970	.01509	
373.15	5700	.01332	
373.15	7400	.01205	
373.15	9230	.01029	
373.15	9380	.01024	
373.15	11030	.00938	
373.15	12420	.0081	
373.15	14010	.00717	
373.15	15360	.00632	
393.15	2300	.01551	
393.15	6000	.01226	
393.15	9780	.00956	
393.15	14930	.00654	

System: carbon dioxide + n-pentadecane + nitrogen; phases: Liquid, Gas
Fixed: Mole fraction of carbon dioxide = .75
Property: Interfacial tension, N/m (Liquid); method: Pendant drop shape
Temperature, K	Pressure, kPa	Interfacial tension, N/m	uncertainty
313.15	530	.02259	
313.15	2030	.0203	
313.15	3960	.01759	
313.15	5970	.01405	
313.15	8050	.01117	
313.15	9940	.00889	
313.15	11750	.00738	
313.15	12080	.00663	
333.15	510	.02128	
333.15	2560	.01896	
333.15	4560	.0164	
333.15	6700	.01356	
333.15	8820	.01142	
333.15	11050	.009	
333.15	13140	.00778	
333.15	13610	.00708	
353.15	570	.02006	
353.15	2590	.01782	
353.15	5040	.01517	
353.15	7200	.01304	
353.15	9540	.01108	
353.15	12050	.00925	
353.15	14430	.00776	
353.15	15010	.00711	
373.15	710	.0188	
373.15	2960	.01673	
373.15	5270	.01487	
373.15	7650	.01278	
373.15	10210	.01061	
373.15	12980	.00883	
373.15	15610	.00747	
373.15	16220	.00684	
393.15	3100	.01556	
393.15	8090	.01189	
393.15	13820	.00813	

System: carbon dioxide + n-heptadecane + nitrogen; phases: Liquid, Gas
Fixed: Mole fraction of carbon dioxide = .75
Property: Interfacial tension, N/m (Liquid); method: Pendant drop shape
Temperature, K	Pressure, kPa	Interfacial tension, N/m	uncertainty
313.15	500	.02291	
313.15	1970	.02032	
313.15	3960	.01763	
313.15	5960	.01449	
313.15	7980	.01158	
313.15	9440	.0098	
313.15	11110	.00785	
313.15	12650	.00654	
333.15	530	.02063	
333.15	2600	.01812	
333.15	4810	.0163	
333.15	6500	.01431	
333.15	8890	.01171	
333.15	10440	.0101	
333.15	12430	.00838	
333.15	14340	.00689	
353.15	650	.01925	
353.15	2910	.01734	
353.15	5330	.01524	
353.15	6910	.01379	
353.15	9600	.0116	
353.15	11340	.01019	
353.15	13650	.00837	
353.15	15890	.0072	
373.15	750	.01869	
373.15	3230	.01652	
373.15	5790	.01477	
373.15	7200	.01361	
373.15	10240	.01138	
373.15	12170	.00981	
373.15	14760	.00831	
373.15	17320	.00686	
393.15	6090	.01384	
393.15	10800	.01082	
393.15	15800	.00804	
