Measured thermophysical data. Solubility of disodium 4,4'-dinitrobibenzyl-2,2'-disulfonate in aqueous organic solutions and its effects on the oxidation reaction of DSD acid synthesis
Source: Fluid Phase Equilib., 2016, 10.1016/j.fluid.2016.07.028
Compound 1: disodium 6,6'-(ethane-1,2-diyl)bis(3-nitrobenzenesulfonate), C14H10N2Na2O10S2, purity 99.7%
Compound 2: ethylene glycol monoethyl ether, C4H10O2, purity 99.97%
Compound 3: ethylene glycol monobutyl ether, C6H14O2, purity 99.95%
Compound 4: water, H2O, purity 99.8%

System: disodium 6,6'-(ethane-1,2-diyl)bis(3-nitrobenzenesulfonate) + ethylene glycol monoethyl ether + water; phases: Liquid, Crystal
Fixed: Pressure, kPa = 100
Property: Mole fraction of disodium 6,6'-(ethane-1,2-diyl)bis(3-nitrobenzenesulfonate) (Liquid); method: dynamic method
Temperature, K	Solvent: Mass fraction of ethylene glycol monoethyl ether	Mole fraction of disodium 6,6'-(ethane-1,2-diyl)bis(3-nitrobenzenesulfonate)	uncertainty
279.7	0	.000481	
284.3	0	.000597	
290.4	0	.000713	
296.2	0	.000821	
300.2	0	.000912	
304.3	0	.001007	
308.3	0	.001103	
312.7	0	.001231	
317	0	.001347	
321.5	0	.001495	
326.1	0	.001637	
330.4	0	.001808	
278.8	.1907	.000387	
282.8	.1907	.000529	
289	.1907	.000672	
294.8	.1907	.000808	
299	.1907	.000926	
302.9	.1907	.001054	
306.6	.1907	.001193	
313	.1907	.001422	
317.8	.1907	.001646	
322.9	.1907	.001855	
327.1	.1907	.002047	
330.7	.1907	.002237	
278.6	.4062	.000136	
282.6	.4062	.000295	
286.8	.4062	.000455	
290.7	.4062	.000615	
294.5	.4062	.000776	
298.4	.4062	.000949	
302.3	.4062	.00114	
306	.4062	.001334	
309.8	.4062	.001532	
320	.4062	.002062	
323.8	.4062	.002289	
328.7	.4062	.002564	
332.9	.4062	.002792	
280.1	.6003	.000393	
286	.6003	.000648	
290.6	.6003	.000867	
295	.6003	.001087	
300.9	.6003	.001431	
307.6	.6003	.001851	
314.4	.6003	.00227	
320.9	.6003	.002684	
327.3	.6003	.003097	
333.7	.6003	.003503	
278.5	.7923	.000039	
282.2	.7923	.000107	
285.8	.7923	.000178	
289.5	.7923	.000252	
293.5	.7923	.00033	
297.4	.7923	.000411	
301.3	.7923	.000495	
305.1	.7923	.000581	
308.9	.7923	.000674	
312.7	.7923	.00078	
316.5	.7923	.000892	
320.2	.7923	.001015	
324	.7923	.001154	
328.1	.7923	.001287	
332.6	.7923	.001411	

System: disodium 6,6'-(ethane-1,2-diyl)bis(3-nitrobenzenesulfonate) + ethylene glycol monobutyl ether + water; phases: Liquid, Crystal
Fixed: Pressure, kPa = 100
Property: Mole fraction of disodium 6,6'-(ethane-1,2-diyl)bis(3-nitrobenzenesulfonate) (Liquid); method: dynamic method
Temperature, K	Solvent: Mass fraction of ethylene glycol monobutyl ether	Mole fraction of disodium 6,6'-(ethane-1,2-diyl)bis(3-nitrobenzenesulfonate)	uncertainty
278.3	.1984	.000685	
281.7	.1984	.000861	
285.9	.1984	.001057	
292.1	.1984	.001338	
298.8	.1984	.00162	
304	.1984	.001871	
310	.1984	.002094	
315	.1984	.002301	
319.8	.1984	.002507	
324.4	.1984	.002701	
328.6	.1984	.002897	
278.7	.4054	.001426	
284.8	.4054	.001685	
292.2	.4054	.001972	
300.4	.4054	.002285	
305.3	.4054	.00247	
309.8	.4054	.00262	
314.2	.4054	.002772	
318.4	.4054	.002923	
322.2	.4054	.0031	
326.2	.4054	.003288	
330.8	.4054	.003494	
280.2	.5013	.001344	
286.1	.5013	.001627	
292.7	.5013	.001899	
299.7	.5013	.002155	
305	.5013	.00237	
313	.5013	.002679	
319.1	.5013	.002902	
325.2	.5013	.003168	
331.3	.5013	.003439	
278.3	.6008	.001111	
282.4	.6008	.001278	
285.4	.6008	.001407	
290.5	.6008	.001626	
295.1	.6008	.001801	
300.6	.6008	.002032	
306.9	.6008	.002276	
313.2	.6008	.002527	
320.9	.6008	.002858	
326	.6008	.003095	
331.5	.6008	.003383	
281.7	.7964	.000078	
287.4	.7964	.000145	
292.6	.7964	.000233	
297.8	.7964	.000321	
301.9	.7964	.000406	
306.1	.7964	.000507	
311	.7964	.000628	
315.2	.7964	.000749	
321.4	.7964	.000881	
326.2	.7964	.001018	
331	.7964	.001153	
