Measured thermophysical data. Experimental study of the density and derived (excess, apparent, and partial molar volumes) properties of binary water+ethanol and ternary water+ethanol+lithium nitrate mixtures at temperatures from 298 K to 448 K and pressures up to 40 MPa
Source: Fluid Phase Equilib., 2014, 10.1016/j.fluid.2014.05.032
Compound 1: water, H2O, purity 99.8%
Compound 2: ethanol, C2H6O, purity 99.5%
Compound 3: lithium nitrate, LiNO3, purity 98%

System: ethanol + water; phases: Liquid
Property: Mass density, kg/m3 (Liquid); method: Constant-volume piezometry
Pressure, kPa	Temperature, K	Mole fraction of ethanol	Mass density, kg/m3	uncertainty
39170	297.05	.0163	1006.1	.30183
30810	297.05	.0163	1003.2	.30096
21070	297.05	.0163	997.5	.29925
11280	297.05	.0163	993.5	.29805
2490	297.05	.0163	990.8	.29724
38480	323.15	.0163	995.2	.29856
30890	323.15	.0163	992.3	.29769
21080	323.15	.0163	988.4	.29652
11390	323.15	.0163	984.4	.29532
2570	323.15	.0163	980.6	.29418
39910	348.15	.0163	982.3	.29469
29500	348.15	.0163	978.3	.29349
20750	348.15	.0163	974.7	.29241
10980	348.15	.0163	970.6	.29118
3220	348.15	.0163	967.1	.29013
35700	373.15	.0163	964.6	.28938
30600	373.15	.0163	962.5	.28875
21160	373.15	.0163	958.3	.28749
11320	373.15	.0163	953.8	.28614
3370	373.15	.0163	950.2	.28506
39890	398.15	.0163	948	.2844
30790	398.15	.0163	943.7	.28311
21360	398.15	.0163	939.3	.28179
11630	398.15	.0163	934.4	.28032
3710	398.15	.0163	930.3	.27909
39560	423.15	.0163	927.2	.27816
30570	423.15	.0163	922.4	.27672
20970	423.15	.0163	917	.2751
10170	423.15	.0163	911	.2733
2680	423.15	.0163	906.7	.27201
38340	448.15	.0163	903.5	.27105
31050	448.15	.0163	899.4	.26982
21530	448.15	.0163	893.7	.26811
11920	448.15	.0163	887.5	.26625
3960	448.15	.0163	882.3	.26469
39150	298.35	.343	998.6	.29958
31040	298.35	.343	995.7	.29871
21300	298.35	.343	991.9	.29757
11280	298.35	.343	987.9	.29637
2590	298.35	.343	984.1	.29523
39010	323.65	.343	988.2	.29646
30930	323.65	.343	985.2	.29556
21200	323.65	.343	981.4	.29442
11320	323.65	.343	977.4	.29322
2610	323.65	.343	973.6	.29208
39860	348.15	.343	974.7	.29241
30850	348.15	.343	971.3	.29139
21160	348.15	.343	967.5	.29025
11590	348.15	.343	963.5	.28905
3260	348.15	.343	959.9	.28797
39000	373.15	.343	957.9	.28737
30520	373.15	.343	954.5	.28635
21120	373.15	.343	950.3	.28509
11470	373.15	.343	945.9	.28377
3390	373.15	.343	942.1	.28263
37300	398.15	.343	938.3	.28149
30930	398.15	.343	935.2	.28056
21530	398.15	.343	930.7	.27921
11730	398.15	.343	925.8	.27774
3550	398.15	.343	921.6	.27648
39680	423.15	.343	918.2	.27546
30640	423.15	.343	913.4	.27402
21070	423.15	.343	908.1	.27243
10240	423.15	.343	901.8	.27054
2680	423.15	.343	897.3	.26919
40060	448.15	.343	894.8	.26844
31010	448.15	.343	889.8	.26694
22180	448.15	.343	884.2	.26526
11960	448.15	.343	877.7	.26331
4080	448.15	.343	872.1	.26163
39230	292.95	.073	988	.2964
30930	292.95	.073	985	.2955
21120	292.95	.073	981.2	.29436
11320	292.95	.073	977.6	.29328
2450	292.95	.073	974.2	.29226
38600	323.15	.073	973.6	.29208
30360	323.15	.073	970.6	.29118
20790	323.15	.073	966.7	.29001
10940	323.15	.073	962.8	.28884
2610	323.15	.073	959.3	.28779
39600	348.15	.073	958.9	.28767
30400	348.15	.073	955	.2865
20870	348.15	.073	950.8	.28524
11060	348.15	.073	946.6	.28398
3330	348.15	.073	943	.2829
37230	373.15	.073	939.9	.28197
30670	373.15	.073	937	.2811
21080	373.15	.073	932.5	.27975
11320	373.15	.073	927.7	.27831
3510	373.15	.073	923.9	.27717
39500	398.15	.073	920.7	.27621
30790	398.15	.073	916.3	.27489
21160	398.15	.073	911.4	.27342
11510	398.15	.073	906.2	.27186
3710	398.15	.073	901.9	.27057
40110	423.15	.073	898.6	.26958
30490	423.15	.073	893	.2679
20110	423.15	.073	887.1	.26613
10710	423.15	.073	881.1	.26433
2760	423.15	.073	875.9	.26277
37210	448.15	.073	873	.2619
31170	448.15	.073	869.2	.26076
21690	448.15	.073	862.7	.25881
12160	448.15	.073	855.6	.25668
4000	448.15	.073	849.3	.25479
40030	298.15	.0946	979.8	.29394
29980	298.15	.0946	976.1	.29283
20060	298.15	.0946	972.4	.29172
10120	298.15	.0946	968.6	.29058
2560	298.15	.0946	965.8	.28974
39810	323.15	.0946	966.2	.28986
32400	323.15	.0946	963.3	.28899
20710	323.15	.0946	958.8	.28764
11140	323.15	.0946	954.9	.28647
2730	323.15	.0946	951.3	.28539
37790	348.15	.0946	948.7	.28461
29730	348.15	.0946	945.4	.28362
20870	348.15	.0946	941.6	.28248
11390	348.15	.0946	937.4	.28122
2730	348.15	.0946	933.7	.28011
39410	373.15	.0946	927.3	.27819
30850	373.15	.0946	922.3	.27669
21200	373.15	.0946	917.7	.27531
11390	373.15	.0946	912.8	.27384
3330	373.15	.0946	908.6	.27258
39610	398.15	.0946	905.3	.27159
30850	398.15	.0946	901.1	.27033
21200	398.15	.0946	896	.2688
11430	398.15	.0946	890.4	.26712
3510	398.15	.0946	885.8	.26574
39860	423.15	.0946	882.2	.26466
30100	423.15	.0946	875.5	.26265
20200	423.15	.0946	869.5	.26085
10050	423.15	.0946	863.9	.25917
2750	423.15	.0946	860.1	.25803
40140	448.15	.0946	858.6	.25758
30990	448.15	.0946	852.6	.25578
21690	448.15	.0946	845.8	.25374
11550	448.15	.0946	837.9	.25137
3860	448.15	.0946	831.7	.24951

System: ethanol + water + lithium nitrate; phases: Liquid
Fixed: Solvent: Mole fraction of ethanol = .0188
Property: Mass density, kg/m3 (Liquid); method: Constant-volume piezometry
Temperature, K	Pressure, kPa	Molality, mol/kg of lithium nitrate	Mass density, kg/m3	uncertainty
298.15	40000	.52	1024.6	.30738
298.15	30000	.52	1021	.3063
298.15	20000	.52	1017.2	.30516
298.15	10000	.52	1013.2	.30396
298.15	5000	.52	1011.1	.30333
323.15	40000	.52	1014.2	.30426
323.15	30000	.52	1010.5	.30315
323.15	20000	.52	1006.6	.30198
323.15	10000	.52	1002.6	.30078
323.15	5000	.52	1000.5	.30015
348.15	40000	.52	1001	.3003
348.15	30000	.52	997.3	.29919
348.15	20000	.52	993.3	.29799
348.15	10000	.52	989.1	.29673
348.15	5000	.52	987	.2961
373.15	40000	.52	985.5	.29565
373.15	30000	.52	981.5	.29445
373.15	20000	.52	977.2	.29316
373.15	10000	.52	972.9	.29187
373.15	5000	.52	970.6	.29118
398.15	40000	.52	968.1	.29043
398.15	30000	.52	963.6	.28908
398.15	20000	.52	959	.2877
398.15	10000	.52	954.2	.28626
398.15	5000	.52	951.8	.28554
448.15	40000	.52	926	.2778
448.15	30000	.52	921	.2763
448.15	20000	.52	915.4	.27462
448.15	10000	.52	909.1	.27273
448.15	5000	.52	905.8	.27174
298.15	40000	.94	1039.3	.31179
298.15	30000	.94	1035.6	.31068
298.15	20000	.94	1031.7	.30951
298.15	10000	.94	1027.6	.30828
298.15	5000	.94	1025.6	.30768
323.15	40000	.94	1028.5	.30855
323.15	30000	.94	1024.7	.30741
323.15	20000	.94	1020.7	.30621
323.15	10000	.94	1016.7	.30501
323.15	5000	.94	1014.6	.30438
348.15	40000	.94	1015.7	.30471
348.15	30000	.94	1012	.3036
348.15	20000	.94	1008	.3024
348.15	10000	.94	1003.8	.30114
348.15	5000	.94	1001.7	.30051
373.15	40000	.94	999.5	.29985
373.15	30000	.94	996	.2988
373.15	20000	.94	991.7	.29751
373.15	10000	.94	987.2	.29616
373.15	5000	.94	984.9	.29547
398.15	40000	.94	982.2	.29466
398.15	30000	.94	977.7	.29331
398.15	20000	.94	973.1	.29193
398.15	10000	.94	968.4	.29052
398.15	5000	.94	966	.2898
448.15	40000	.94	941	.2823
448.15	30000	.94	935.5	.28065
448.15	20000	.94	929.7	.27891
448.15	10000	.94	923.7	.27711
448.15	5000	.94	920.6	.27618

System: ethanol + water + lithium nitrate; phases: Liquid
Fixed: Solvent: Mole fraction of ethanol = .0386
Property: Mass density, kg/m3 (Liquid); method: Constant-volume piezometry
Temperature, K	Pressure, kPa	Molality, mol/kg of lithium nitrate	Mass density, kg/m3	uncertainty
298.15	40000	.0457	1001.1	.30033
298.15	30000	.0457	997.2	.29916
298.15	20000	.0457	993.3	.29799
298.15	10000	.0457	989.1	.29673
298.15	5000	.0457	987	.2961
323.15	40000	.0457	990.6	.29718
323.15	30000	.0457	986.6	.29598
323.15	20000	.0457	982.6	.29478
323.15	10000	.0457	978.6	.29358
323.15	5000	.0457	976.5	.29295
348.15	40000	.0457	978.1	.29343
348.15	30000	.0457	974	.2922
348.15	20000	.0457	969.8	.29094
348.15	10000	.0457	965.5	.28965
348.15	5000	.0457	963.3	.28899
373.15	40000	.0457	961.4	.28842
373.15	30000	.0457	956.8	.28704
373.15	20000	.0457	952.4	.28572
373.15	10000	.0457	948	.2844
373.15	5000	.0457	945.8	.28374
398.15	40000	.0457	942.6	.28278
398.15	30000	.0457	937.8	.28134
398.15	20000	.0457	932.8	.27984
398.15	10000	.0457	927.7	.27831
398.15	5000	.0457	925.2	.27756
448.15	40000	.0457	898.9	.26967
448.15	30000	.0457	892.6	.26778
448.15	20000	.0457	886.3	.26589
448.15	10000	.0457	879.6	.26388
448.15	5000	.0457	876.1	.26283
298.15	40000	.4757	1017.2	.30516
298.15	30000	.4757	1013.5	.30405
298.15	20000	.4757	1009.6	.30288
298.15	10000	.4757	1005.5	.30165
298.15	5000	.4757	1003.5	.30105
323.15	40000	.4757	1006.1	.30183
323.15	30000	.4757	1002.3	.30069
323.15	20000	.4757	998.3	.29949
323.15	10000	.4757	994.3	.29829
323.15	5000	.4757	992.2	.29766
348.15	40000	.4757	993.2	.29796
348.15	30000	.4757	989.2	.29676
348.15	20000	.4757	985.1	.29553
348.15	10000	.4757	980.8	.29424
348.15	5000	.4757	978.6	.29358
373.15	40000	.4757	976.8	.29304
373.15	30000	.4757	972.4	.29172
373.15	20000	.4757	967.9	.29037
373.15	10000	.4757	963.4	.28902
373.15	5000	.4757	961.1	.28833
398.15	40000	.4757	958.1	.28743
398.15	30000	.4757	953.4	.28602
398.15	20000	.4757	948.5	.28455
398.15	10000	.4757	943.5	.28305
398.15	5000	.4757	941	.2823
448.15	40000	.4757	915.5	.27465
448.15	30000	.4757	909.2	.27276
448.15	20000	.4757	903	.2709
448.15	10000	.4757	896.6	.26898
448.15	5000	.4757	893.3	.26799
298.15	40000	.8599	1030.2	.30906
298.15	30000	.8599	1026.4	.30792
298.15	20000	.8599	1022.5	.30675
298.15	10000	.8599	1018.6	.30558
298.15	5000	.8599	1016.6	.30498
323.15	40000	.8599	1019.2	.30576
323.15	30000	.8599	1015.3	.30459
323.15	20000	.8599	1011.4	.30342
323.15	10000	.8599	1007.4	.30222
323.15	5000	.8599	1005.3	.30159
348.15	40000	.8599	1004.9	.30147
348.15	30000	.8599	1001	.3003
348.15	20000	.8599	996.9	.29907
348.15	10000	.8599	992.8	.29784
348.15	5000	.8599	990.7	.29721
373.15	40000	.8599	989.6	.29688
373.15	30000	.8599	984.6	.29538
373.15	20000	.8599	979.9	.29397
373.15	10000	.8599	975.3	.29259
373.15	5000	.8599	973.1	.29193
398.15	40000	.8599	970	.291
398.15	30000	.8599	965.5	.28965
398.15	20000	.8599	960.7	.28821
398.15	10000	.8599	955.7	.28671
398.15	5000	.8599	953.2	.28596
448.15	40000	.8599	927.8	.27834
448.15	30000	.8599	921.9	.27657
448.15	20000	.8599	915.9	.27477
448.15	10000	.8599	909.7	.27291
448.15	5000	.8599	906.6	.27198
298.15	40000	1.0931	1039.7	.31191
298.15	30000	1.0931	1035.8	.31074
298.15	20000	1.0931	1031.9	.30957
298.15	10000	1.0931	1028	.3084
298.15	5000	1.0931	1026	.3078
323.15	40000	1.0931	1027.7	.30831
323.15	30000	1.0931	1023.9	.30717
323.15	20000	1.0931	1020.1	.30603
323.15	10000	1.0931	1016.1	.30483
323.15	5000	1.0931	1014.1	.30423
348.15	40000	1.0931	1013.5	.30405
348.15	30000	1.0931	1009.7	.30291
348.15	20000	1.0931	1005.7	.30171
348.15	10000	1.0931	1001.5	.30045
348.15	5000	1.0931	999.3	.29979
373.15	40000	1.0931	997.2	.29916
373.15	30000	1.0931	993	.2979
373.15	20000	1.0931	988.7	.29661
373.15	10000	1.0931	984.2	.29526
373.15	5000	1.0931	981.9	.29457
398.15	40000	1.0931	978.9	.29367
398.15	30000	1.0931	974.3	.29229
398.15	20000	1.0931	969.6	.29088
398.15	10000	1.0931	964.7	.28941
398.15	5000	1.0931	962.2	.28866
448.15	40000	1.0931	937.9	.28137
448.15	30000	1.0931	931.8	.27954
448.15	20000	1.0931	925.7	.27771
448.15	10000	1.0931	919.5	.27585
448.15	5000	1.0931	916.3	.27489

System: ethanol + water + lithium nitrate; phases: Liquid
Fixed: Solvent: Mole fraction of ethanol = .0817
Property: Mass density, kg/m3 (Liquid); method: Constant-volume piezometry
Temperature, K	Pressure, kPa	Molality, mol/kg of lithium nitrate	Mass density, kg/m3	uncertainty
298.15	40000	.0422	991	.2973
298.15	30000	.0422	987.3	.29619
298.15	20000	.0422	983.5	.29505
298.15	10000	.0422	979.7	.29391
298.15	5000	.0422	977.7	.29331
323.15	40000	.0422	978.4	.29352
323.15	30000	.0422	974.5	.29235
323.15	20000	.0422	970.5	.29115
323.15	10000	.0422	966.6	.28998
323.15	5000	.0422	964.6	.28938
348.15	40000	.0422	963.1	.28893
348.15	30000	.0422	959.2	.28776
348.15	20000	.0422	955.1	.28653
348.15	10000	.0422	950.8	.28524
348.15	5000	.0422	948.5	.28455
373.15	40000	.0422	946.3	.28389
373.15	30000	.0422	941.6	.28248
373.15	20000	.0422	937	.2811
373.15	10000	.0422	932.1	.27963
373.15	5000	.0422	929.6	.27888
398.15	40000	.0422	926.2	.27786
398.15	30000	.0422	921.2	.27636
398.15	20000	.0422	916.1	.27483
398.15	10000	.0422	910.9	.27327
398.15	5000	.0422	908.1	.27243
448.15	40000	.0422	881.3	.26439
448.15	30000	.0422	874.2	.26226
448.15	20000	.0422	867.5	.26025
448.15	10000	.0422	860.3	.25809
448.15	5000	.0422	856.5	.25695
298.15	40000	.4387	1004	.3012
298.15	30000	.4387	1000.1	.30003
298.15	20000	.4387	996.2	.29886
298.15	10000	.4387	992.3	.29769
298.15	5000	.4387	990.3	.29709
323.15	40000	.4387	992.6	.29778
323.15	30000	.4387	988.7	.29661
323.15	20000	.4387	984.8	.29544
323.15	10000	.4387	980.9	.29427
323.15	5000	.4387	978.9	.29367
348.15	40000	.4387	977.2	.29316
348.15	30000	.4387	973.2	.29196
348.15	20000	.4387	969.1	.29073
348.15	10000	.4387	964.9	.28947
348.15	5000	.4387	962.8	.28884
373.15	40000	.4387	960	.288
373.15	30000	.4387	955.6	.28668
373.15	20000	.4387	951	.2853
373.15	10000	.4387	946.3	.28389
373.15	5000	.4387	944	.2832
398.15	40000	.4387	940.5	.28215
398.15	30000	.4387	935.7	.28071
398.15	20000	.4387	930.7	.27921
398.15	10000	.4387	925.5	.27765
398.15	5000	.4387	922.9	.27687
448.15	40000	.4387	895.7	.26871
448.15	30000	.4387	889.6	.26688
448.15	20000	.4387	883	.2649
448.15	10000	.4387	876	.2628
448.15	5000	.4387	872.3	.26169
298.15	40000	.793	1018.4	.30552
298.15	30000	.793	1014.7	.30441
298.15	20000	.793	1010.8	.30324
298.15	10000	.793	1006.8	.30204
298.15	5000	.793	1004.7	.30141
323.15	40000	.793	1005.1	.30153
323.15	30000	.793	1001.4	.30042
323.15	20000	.793	997.5	.29925
323.15	10000	.793	993.5	.29805
323.15	5000	.793	991.4	.29742
348.15	40000	.793	990	.297
348.15	30000	.793	985.9	.29577
348.15	20000	.793	981.7	.29451
348.15	10000	.793	977.5	.29325
348.15	5000	.793	975.4	.29262
373.15	40000	.793	972.6	.29178
373.15	30000	.793	968.2	.29046
373.15	20000	.793	963.7	.28911
373.15	10000	.793	959	.2877
373.15	5000	.793	956.6	.28698
398.15	40000	.793	953.2	.28596
398.15	30000	.793	948.6	.28458
398.15	20000	.793	943.7	.28311
398.15	10000	.793	938.5	.28155
398.15	5000	.793	935.8	.28074
448.15	40000	.793	909.6	.27288
448.15	30000	.793	903.6	.27108
448.15	20000	.793	897.2	.26916
448.15	10000	.793	890.5	.26715
448.15	5000	.793	886.9	.26607
298.15	40000	1.187	1025	.3075
298.15	30000	1.187	1021.4	.30642
298.15	20000	1.187	1017.8	.30534
298.15	10000	1.187	1014	.3042
298.15	5000	1.187	1012.2	.30366
323.15	40000	1.187	1012.5	.30375
323.15	30000	1.187	1008.8	.30264
323.15	20000	1.187	1004.9	.30147
323.15	10000	1.187	1001	.3003
323.15	5000	1.187	999	.2997
348.15	40000	1.187	998.1	.29943
348.15	30000	1.187	994.2	.29826
348.15	20000	1.187	990.1	.29703
348.15	10000	1.187	985.8	.29574
348.15	5000	1.187	983.7	.29511
373.15	40000	1.187	981.1	.29433
373.15	30000	1.187	976.7	.29301
373.15	20000	1.187	972.1	.29163
373.15	10000	1.187	967.5	.29025
373.15	5000	1.187	965.1	.28953
398.15	40000	1.187	962	.2886
398.15	30000	1.187	957.3	.28719
398.15	20000	1.187	952.4	.28572
398.15	10000	1.187	947.3	.28419
398.15	5000	1.187	944.6	.28338
448.15	40000	1.187	918.7	.27561
448.15	30000	1.187	912.7	.27381
448.15	20000	1.187	906.4	.27192
448.15	10000	1.187	899.8	.26994
448.15	5000	1.187	896.3	.26889

System: ethanol + water + lithium nitrate; phases: Liquid
Fixed: Solvent: Mole fraction of ethanol = .1051
Property: Mass density, kg/m3 (Liquid); method: Constant-volume piezometry
Temperature, K	Pressure, kPa	Molality, mol/kg of lithium nitrate	Mass density, kg/m3	uncertainty
298.15	40000	.52	998.4	.29952
298.15	30000	.52	994.5	.29835
298.15	20000	.52	990.5	.29715
298.15	10000	.52	986.5	.29595
298.15	5000	.52	984.4	.29532
323.15	40000	.52	986.9	.29607
323.15	30000	.52	983.1	.29493
323.15	20000	.52	979.1	.29373
323.15	10000	.52	975.1	.29253
323.15	5000	.52	973	.2919
348.15	40000	.52	971	.2913
348.15	30000	.52	967.1	.29013
348.15	20000	.52	962.9	.28887
348.15	10000	.52	958.6	.28758
348.15	5000	.52	956.3	.28689
373.15	40000	.52	953.1	.28593
373.15	30000	.52	948.8	.28464
373.15	20000	.52	944.3	.28329
373.15	10000	.52	939.4	.28182
373.15	5000	.52	936.8	.28104
398.15	40000	.52	933.2	.27996
398.15	30000	.52	928.5	.27855
398.15	20000	.52	923.4	.27702
398.15	10000	.52	917.9	.27537
398.15	5000	.52	915	.2745
448.15	40000	.52	888	.2664
448.15	30000	.52	881.7	.26451
448.15	20000	.52	874.9	.26247
448.15	10000	.52	867.6	.26028
448.15	5000	.52	863.7	.25911
298.15	40000	.94	1012.6	.30378
298.15	30000	.94	1008.9	.30267
298.15	20000	.94	1005.2	.30156
298.15	10000	.94	1001.4	.30042
298.15	5000	.94	999.6	.29988
323.15	40000	.94	999.5	.29985
323.15	30000	.94	995.8	.29874
323.15	20000	.94	992	.2976
323.15	10000	.94	988.1	.29643
323.15	5000	.94	986	.2958
348.15	40000	.94	984.3	.29529
348.15	30000	.94	980.2	.29406
348.15	20000	.94	975.9	.29277
348.15	10000	.94	971.6	.29148
348.15	5000	.94	969.4	.29082
373.15	40000	.94	965.8	.28974
373.15	30000	.94	962.4	.28872
373.15	20000	.94	958.4	.28752
373.15	10000	.94	954	.2862
373.15	5000	.94	951.5	.28545
398.15	40000	.94	947.8	.28434
398.15	30000	.94	943.2	.28296
398.15	20000	.94	938.1	.28143
398.15	10000	.94	932.7	.27981
398.15	5000	.94	929.8	.27894
448.15	40000	.94	903.5	.27105
448.15	30000	.94	897.5	.26925
448.15	20000	.94	891	.2673
448.15	10000	.94	883.9	.26517
448.15	5000	.94	880.1	.26403
