Measured thermophysical data. (Solid + liquid) and (liquid + liquid) phase equilibria measurements and  correlation of the binary systems {tri-iso-butyl(methyl)phosphonium  tosylate + alcohol, or +hydrocarbon}
Source: Fluid Phase Equilib., 2009, 10.1016/j.fluid.2009.01.012
Compound 1: triisobutylmethylphosphonium p-toluenesulfonate, C20H37O3PS, purity 95%
Compound 2: 1-decanol, C10H22O
Compound 3: 1-dodecanol, C12H26O
Compound 4: heptane, C7H16
Compound 5: octane, C8H18
Compound 6: nonane, C9H20
Compound 7: decane, C10H22
Compound 8: hexane, C6H14

System: triisobutylmethylphosphonium p-toluenesulfonate; phases: Glass, Liquid, Air at 1 atmosphere
Property: Triple point temperature, K (Glass); method: DSC/DTA
Triple point temperature, K	uncertainty
225.5	.1

System: 1-decanol + triisobutylmethylphosphonium p-toluenesulfonate; phases: Liquid, Crystal 1
Fixed: Pressure, kPa = 101
Property: Solid-liquid equilibrium temperature, K (Liquid); method: Visual observation
Mole fraction of triisobutylmethylphosphonium p-toluenesulfonate	Solid-liquid equilibrium temperature, K	uncertainty
.2688	270.06	.05
.2368	271.92	.05
.1769	274.67	.05
.1491	276.04	.05
.1219	277.15	.05
.0989	277.72	.05
.0757	278.51	.05
.0489	279.06	.05
.0122	279.79	.05
0	280.09	.05

System: 1-dodecanol + triisobutylmethylphosphonium p-toluenesulfonate; phases: Liquid, Crystal 1
Fixed: Pressure, kPa = 101
Property: Solid-liquid equilibrium temperature, K (Liquid); method: Visual observation
Mole fraction of triisobutylmethylphosphonium p-toluenesulfonate	Solid-liquid equilibrium temperature, K	uncertainty
.679	275.71	.05
.6452	276.39	.05
.6014	277.36	.05
.5558	278.78	.05
.51	280.01	.05
.4678	281.8	.05
.4204	283.28	.05
.3809	284.77	.05
.3346	285.99	.05
.2955	287.43	.05
.2272	290.09	.05
.1944	291.54	.05
.1515	293.08	.05
.0912	294.75	.05
.0495	295.62	.05
0	296.67	.05

System: hexane + triisobutylmethylphosphonium p-toluenesulfonate; phases: Liquid mixture 1, Liquid mixture 2
Fixed: Pressure, kPa = 101
Property: Liquid-liquid equilibrium temperature, K (Liquid mixture 1); method: Visual observation
Mole fraction of triisobutylmethylphosphonium p-toluenesulfonate	Liquid-liquid equilibrium temperature, K	uncertainty
.7556	308.4	.05
.7241	313.09	.05
.6593	324.31	.05
.602	331.78	.05
.6991	316.86	.05
.581	335.47	.05
.5578	338.12	.05

System: octane + triisobutylmethylphosphonium p-toluenesulfonate; phases: Liquid mixture 1, Liquid mixture 2
Fixed: Pressure, kPa = 101
Property: Liquid-liquid equilibrium temperature, K (Liquid mixture 1); method: Visual observation
Mole fraction of triisobutylmethylphosphonium p-toluenesulfonate	Liquid-liquid equilibrium temperature, K	uncertainty
.884	317.79	.05
.8429	322.31	.05
.8162	328.38	.05
.7705	337.41	.05
.7033	345.69	.05
.6811	348.51	.05
.675	349.65	.05
.6413	353.78	.05
.61	356.29	.05
.5801	360.1	.05

System: nonane + triisobutylmethylphosphonium p-toluenesulfonate; phases: Liquid mixture 1, Liquid mixture 2
Fixed: Pressure, kPa = 101
Property: Liquid-liquid equilibrium temperature, K (Liquid mixture 1); method: Visual observation
Mole fraction of triisobutylmethylphosphonium p-toluenesulfonate	Liquid-liquid equilibrium temperature, K	uncertainty
.9605	320.04	.05
.9403	324.98	.05
.8654	332.22	.05
.8462	336.79	.05
.8395	337.66	.05
.7518	352.56	.05
.7322	355.78	.05
.7045	359	.05
.6836	361.51	.05

System: decane + triisobutylmethylphosphonium p-toluenesulfonate; phases: Liquid mixture 1, Liquid mixture 2
Fixed: Pressure, kPa = 101
Property: Liquid-liquid equilibrium temperature, K (Liquid mixture 1); method: Visual observation
Mole fraction of triisobutylmethylphosphonium p-toluenesulfonate	Liquid-liquid equilibrium temperature, K	uncertainty
.8641	347.02	.05
.831	353.37	.05
.8033	357.3	.05
.7563	363.4	.05
.9663	330.56	.05
.909	341.14	.05
.8108	356.4	.05

System: heptane + triisobutylmethylphosphonium p-toluenesulfonate; phases: Liquid mixture 1, Liquid mixture 2
Fixed: Pressure, kPa = 101
Property: Liquid-liquid equilibrium temperature, K (Liquid mixture 1); method: Visual observation
Mole fraction of triisobutylmethylphosphonium p-toluenesulfonate	Liquid-liquid equilibrium temperature, K	uncertainty
.8195	315.86	.05
.8157	316.73	.05
.7917	320.28	.05
.7838	321.57	.05
.7638	324.67	.05
.6811	335.72	.05
.6345	343.18	.05
.6133	348.8	.05
.7108	332.45	.05
.5832	351.17	.05
.5536	353.78	.05
