Measured thermophysical data. A novel continuous flow apparatus with a video camera system for high pressure phase equilibrium measurements
Source: Fluid Phase Equilib., 2013, 10.1016/j.fluid.2013.07.001
Compound 1: ethanol, C2H6O, purity 99.5%
Compound 2: diphenylmethane, C13H12, purity 99%
Compound 3: n-heptane, C7H16, purity 99%
Compound 4: toluene, C7H8, purity 99.7%
Compound 5: water, H2O, purity 99.9%

System: ethanol; phases: Liquid, Gas
Property: Vapor or sublimation pressure, kPa (Liquid); method: Continuous Flow Apparatus
Temperature, K	Vapor or sublimation pressure, kPa	uncertainty
473.2	3030	50
473.2	3040	50
473.2	2970	50
498.3	4710	50
498.2	4690	50
498.3	4760	50

System: diphenylmethane; phases: Liquid, Gas
Property: Vapor or sublimation pressure, kPa (Liquid); method: Continuous Flow Apparatus
Temperature, K	Vapor or sublimation pressure, kPa	uncertainty
573.1	210	50
573.1	200	50
573.1	210	50
598	330	50
598	330	50
598	340	50
623	510	50
623.1	520	50
623.1	510	50

System: n-heptane; phases: Liquid, Gas
Property: Vapor or sublimation pressure, kPa (Liquid); method: Continuous Flow Apparatus
Temperature, K	Vapor or sublimation pressure, kPa	uncertainty
473.3	960	50
473.1	980	50
473.2	980	50
498.2	1490	50
498.2	1460	50
498.2	1470	50
523.2	2170	50
523.2	2180	50
523.2	2190	50

System: toluene; phases: Liquid, Gas
Property: Vapor or sublimation pressure, kPa (Liquid); method: Continuous Flow Apparatus
Temperature, K	Vapor or sublimation pressure, kPa	uncertainty
473.3	760	50
473.3	760	50
473.3	760	50
498.3	1120	50
498.3	1150	50
498.3	1140	50
523.4	1670	50
523.4	1660	50
523.4	1660	50
548.4	2340	50
548.3	2350	50
548.4	2340	50
573.2	3280	50
573.2	3250	50
573.2	3230	50

System: water; phases: Liquid, Gas
Property: Vapor or sublimation pressure, kPa (Liquid); method: Continuous Flow Apparatus
Temperature, K	Vapor or sublimation pressure, kPa	uncertainty
473.3	1580	50
473.2	1540	50
473.3	1560	50
498.2	2550	50
498.2	2550	50
498.3	2560	50
523.3	4030	50
523.3	4010	50
523.4	4030	50
548.4	6030	50
548.4	6030	50
548.4	6030	50

System: ethanol + water; phases: Liquid, Gas
Property: Vapor or sublimation pressure, kPa (Liquid); method: Continuous Flow Apparatus
Temperature, K	Mole fraction of ethanol	Vapor or sublimation pressure, kPa	uncertainty
473.2	.107	2180	50
473.2	.107	2150	50
473.2	.107	2180	50
473.1	.202	2400	50
473.1	.202	2380	50
473.2	.202	2390	50
473.3	.299	2590	50
473.3	.299	2590	50
473.3	.299	2570	50
473	.498	2760	50
473	.498	2760	50
473	.498	2760	50
473	.792	2970	50
473	.792	2980	50
473	.792	2980	50
528.4	.107	5590	50
528.4	.107	5590	50
528.3	.107	5630	50
523.2	.202	5820	50
523.2	.202	5740	50
523.2	.202	5680	50
523.3	.299	6110	50
523.4	.299	6090	50
523.4	.299	6070	50
523.1	.498	6750	50
523.1	.498	6670	50
523	.498	6690	50
548.2	.107	7550	50
548.2	.107	7580	50
548.3	.107	7610	50
548.3	.202	8360	50
548.3	.202	8330	50
548.2	.202	8330	50
548.4	.299	8960	50
548.4	.299	8960	50
548.4	.299	8950	50
573.3	.107	10970	50
573.2	.107	10750	50
573.2	.107	10840	50
573.2	.202	11860	50
573.2	.202	11860	50
573.2	.202	12020	50

System: diphenylmethane + n-heptane; phases: Liquid, Gas
Property: Vapor or sublimation pressure, kPa (Liquid); method: Continuous Flow Apparatus
Temperature, K	Mole fraction of diphenylmethane	Vapor or sublimation pressure, kPa	uncertainty
473	.103	890	50
473	.103	860	50
473	.103	870	50
472.9	.203	740	50
473	.203	740	50
473	.203	750	50
473.1	.302	690	50
473.1	.302	650	50
473.1	.302	650	50
472.9	.399	570	50
473	.399	570	50
473	.399	570	50
473	.52	480	50
473	.52	460	50
473	.52	480	50
505	.103	1460	50
505	.103	1410	50
505	.103	1380	50
505.1	.203	1180	50
505.1	.203	1200	50
505.1	.203	1250	50
505	.302	1050	50
505.1	.302	1040	50
505.1	.302	1080	50
505.1	.399	970	50
505.1	.399	940	50
505.1	.399	920	50
505	.52	770	50
505.1	.52	730	50
505	.52	750	50
504.9	.632	430	50
505	.632	530	50
505	.632	520	50
505	.714	450	50
505	.714	420	50
505.1	.714	440	50
505	.817	290	50
505.1	.817	270	50
505.1	.817	250	50
505.1	.909	220	50
505.1	.909	160	50
505.1	.909	160	50
523	.103	1790	50
523	.103	1760	50
523	.103	1790	50
523.1	.203	1540	50
523	.203	1540	50
523	.203	1550	50
523	.302	1340	50
523.1	.302	1350	50
523.1	.302	1350	50
523.2	.399	1160	50
523.1	.399	1160	50
523	.399	1160	50
523.1	.52	960	50
523.1	.52	940	50
523.1	.52	930	50
523	.632	750	50
523.1	.632	740	50
523	.632	720	50
523	.714	520	50
523	.714	500	50
523	.714	490	50
523.1	.817	400	50
523	.817	370	50
523.1	.817	350	50
523.1	.909	180	50
523.1	.909	170	50
523.1	.909	170	50
548	.399	1580	50
548	.399	1600	50
548	.399	1590	50
548	.52	1290	50
548	.52	1260	50
548	.52	1260	50
548	.632	960	50
548	.632	970	50
548.1	.632	930	50
548	.714	730	50
548	.714	730	50
548	.714	780	50
548.1	.817	530	50
548.1	.817	550	50
548	.817	520	50
548.1	.909	290	50
548.1	.909	300	50
548.1	.909	310	50
572.8	.52	1700	50
572.9	.52	1670	50
572.9	.52	1690	50
572.8	.632	1290	50
572.8	.632	1220	50
572.8	.632	1230	50
572.9	.714	1020	50
572.9	.714	990	50
572.9	.714	1000	50
572.9	.817	710	50
572.9	.817	730	50
572.9	.817	700	50
573	.909	430	50
572.9	.909	430	50
573	.909	430	50
597.7	.632	1690	50
597.8	.632	1710	50
597.8	.632	1690	50
597.8	.714	1360	50
597.8	.714	1380	50
597.8	.714	1350	50
597.8	.817	920	50
597.9	.817	930	50
597.9	.817	970	50
597.9	.909	590	50
597.9	.909	630	50
597.9	.909	590	50

System: diphenylmethane + toluene; phases: Liquid, Gas
Property: Vapor or sublimation pressure, kPa (Liquid); method: Continuous Flow Apparatus
Temperature, K	Mole fraction of diphenylmethane	Vapor or sublimation pressure, kPa	uncertainty
473.2	.1	710	50
473.2	.1	690	50
473.3	.1	710	50
473.3	.2	510	50
473.3	.2	510	50
473.2	.299	450	50
473.2	.299	450	50
473.3	.401	420	50
473.3	.401	420	50
473.2	.401	410	50
473.3	.5	340	50
473.4	.5	340	50
473.4	.5	340	50
473.2	.599	240	50
473.2	.599	220	50
473.2	.599	240	50
473.1	.697	160	50
473.2	.697	170	50
473.2	.697	180	50
505.3	.1	1090	50
505.3	.1	1070	50
505.4	.1	1070	50
505.3	.2	920	50
505.3	.2	920	50
505.3	.2	920	50
505.3	.299	760	50
505.4	.299	750	50
505.3	.299	770	50
505.3	.401	700	50
505.3	.401	690	50
505.3	.401	710	50
505.5	.5	580	50
505.5	.5	570	50
505.5	.5	570	50
505.3	.599	430	50
505.3	.599	440	50
505.4	.599	430	50
505.4	.697	330	50
505.4	.697	330	50
505.4	.697	320	50
505.4	.801	220	50
505.4	.801	220	50
505.4	.801	220	50
523.4	.1	1420	50
523.4	.1	1420	50
523.4	.1	1430	50
523.3	.2	1230	50
523.2	.2	1210	50
523.3	.2	1210	50
523.4	.299	1010	50
523.3	.299	1010	50
523.4	.299	1010	50
523.3	.401	900	50
523.3	.401	900	50
523.3	.401	890	50
523.4	.5	760	50
523.4	.5	730	50
523.5	.5	740	50
523.3	.599	590	50
523.3	.599	590	50
523.3	.599	590	50
523.3	.697	440	50
523.4	.697	440	50
523.4	.697	440	50
523.4	.801	300	50
523.4	.801	300	50
523.4	.801	300	50
523.4	.897	180	50
523.4	.897	180	50
523.5	.897	180	50
548.4	.1	1980	50
548.3	.1	1960	50
548.3	.1	1970	50
548.3	.2	1700	50
548.2	.2	1700	50
548.2	.2	1700	50
548.3	.299	1420	50
548.3	.299	1420	50
548.4	.299	1410	50
548.2	.401	1210	50
548.3	.401	1230	50
548.2	.401	1250	50
548.3	.5	1040	50
548.4	.5	1040	50
548.4	.5	1050	50
548.2	.599	830	50
548.2	.599	830	50
548.2	.599	830	50
548.4	.697	630	50
548.4	.697	640	50
548.4	.697	630	50
548.3	.801	440	50
548.4	.801	440	50
548.4	.801	450	50
548.3	.897	280	50
548.4	.897	290	50
548.4	.897	280	50
573.1	.1	2700	50
573.2	.1	2700	50
573.2	.1	2710	50
573.1	.2	2350	50
573.2	.2	2320	50
573.2	.2	2310	50
573.2	.299	1930	50
573.1	.299	1910	50
573.1	.299	1910	50
573	.401	1670	50
573	.401	1670	50
573.1	.401	1650	50
573.1	.5	1410	50
573.1	.5	1410	50
573.1	.5	1410	50
573.1	.599	1140	50
573.1	.599	1150	50
573.2	.599	1140	50
573.2	.697	880	50
573.2	.697	890	50
573.3	.697	880	50
573.2	.801	640	50
573.2	.801	630	50
573.2	.801	630	50
573.2	.897	420	50
573.2	.897	410	50
573.2	.897	420	50
598.1	.2	3060	50
598.1	.2	3040	50
598.1	.2	3030	50
598	.299	2470	50
598.1	.299	2480	50
598.1	.299	2510	50
598	.401	2160	50
598	.401	2190	50
598	.401	2180	50
598	.5	1830	50
598.1	.5	1830	50
598.1	.5	1840	50
598	.599	1490	50
598	.599	1490	50
598	.599	1500	50
598.1	.697	1160	50
598.1	.697	1170	50
598.2	.697	1180	50
598.1	.801	860	50
598.1	.801	850	50
598.1	.801	850	50
598.1	.897	600	50
598.1	.897	590	50
598.2	.897	600	50
