Measured thermophysical data. Temperature dependence of limiting activity coefficients, Henry's law constants, and related infinite dilution properties of C4-C6 isomeric n-alkyl ethanoates/ethyl n-alkanoates in water. Measurement, critical compilation, correlation, and recommended data
Source: Fluid Phase Equilib., 2014, 10.1016/j.fluid.2014.05.023
Compound 1: water, H2O
Compound 2: ethyl ethanoate, C4H8O2, purity 99%
Compound 3: propyl ethanoate, C5H10O2, purity 99.5%
Compound 4: ethyl propanoate, C5H10O2, purity 99%
Compound 5: butyl ethanoate, C6H12O2, purity 99%
Compound 6: ethyl butanoate, C6H12O2, purity 98%

System: ethyl ethanoate + water; phases: Liquid
Fixed: Pressure, kPa = 101
Fixed: Mole fraction of ethyl ethanoate = 0
Property: Activity coefficient of ethyl ethanoate (Liquid); method: Chromatography
Temperature, K	Activity coefficient of ethyl ethanoate	uncertainty
273.35	44.5	3
283.15	54.9	3
293.15	64.8	3
293.15	68	3
298.15	69.2	3
303.15	73.6	3
313.15	80.1	3

System: propyl ethanoate + water; phases: Liquid
Fixed: Pressure, kPa = 101
Fixed: Mole fraction of propyl ethanoate = 0
Property: Activity coefficient of propyl ethanoate (Liquid); method: Chromatography
Temperature, K	Activity coefficient of propyl ethanoate	uncertainty
273.35	172	3
283.15	217	3
293.15	274	5
293.15	257	3
298.15	261	3
298.15	270	3
303.15	281	3
313.15	302	3
323.15	319	3
333.15	321	3

System: butyl ethanoate + water; phases: Liquid
Fixed: Pressure, kPa = 101
Fixed: Mole fraction of butyl ethanoate = 0
Property: Activity coefficient of butyl ethanoate (Liquid); method: Chromatography
Temperature, K	Activity coefficient of butyl ethanoate	uncertainty
273.35	613	3
283.15	799	3
293.15	942	3
298.15	1043	3
303.15	1081	3
313.15	1145	3
323.15	1161	3
333.15	1138	3

System: ethyl propanoate + water; phases: Liquid
Fixed: Pressure, kPa = 101
Fixed: Mole fraction of ethyl propanoate = 0
Property: Activity coefficient of ethyl propanoate (Liquid); method: Chromatography
Temperature, K	Activity coefficient of ethyl propanoate	uncertainty
293.15	252	3
303.15	291	3
313.15	312	3
323.15	329	3
333.15	343	3
341.15	332	10
341.15	328	10
351.15	366	10
351.15	321	10
361.25	283	10

System: ethyl butanoate + water; phases: Liquid
Fixed: Pressure, kPa = 101
Fixed: Mole fraction of ethyl butanoate = 0
Property: Activity coefficient of ethyl butanoate (Liquid); method: Chromatography
Temperature, K	Activity coefficient of ethyl butanoate	uncertainty
293.15	993	3
303.15	1091	3
313.15	1148	3
323.15	1176	3
333.15	1175	3
341.15	1108	5
351.15	1034	5
