Measured thermophysical data. Measurement and correlation of liquid-liquid equilibria at different temperatures of water + 1-propanol + 1-ethyl-3- methylimidazolium bis(trifluoromethylsulfonyl)imide or 1-hexyl-3- methylimidazolium bis(trifluoromethylsulfonyl)imide ternary systems
Source: Fluid Phase Equilib., 2016, 10.1016/j.fluid.2016.08.038
Compound 1: water, H2O, purity 99.8%
Compound 2: 1-propanol, C3H8O, purity 99.50%
Compound 3: 1-ethyl-3-methylimidazolium bis(trifluoromethylsulfonyl)imide, C8H11F6N3O4S2, purity 99.00%
Compound 4: 1-hexyl-3-methylimidazolium bis(trifluoromethylsulfonyl)imide, C12H19F6N3O4S2, purity 99.00%

System: 1-propanol + water + 1-ethyl-3-methylimidazolium bis(trifluoromethylsulfonyl)imide; phases: Liquid mixture 1, Liquid mixture 2
Fixed: Pressure, kPa = 101.3
Property: Mole fraction of 1-propanol (Liquid mixture 1); method: Chromatography
Property: Mole fraction of water (Liquid mixture 2); method: Chromatography
Property: Mole fraction of 1-propanol (Liquid mixture 2); method: Chromatography
Temperature, K	Mole fraction of water	Mole fraction of 1-propanol	uncertainty	Mole fraction of water	uncertainty	Mole fraction of 1-propanol	uncertainty
283.2	.24	0	.002	.999	.002	0	.002
323.2	.551	.217	.002	.962	.002	.035	.002
323.2	.62	.234	.002	.943	.002	.053	.002
283.2	.296	.1	.002	.974	.002	.025	.002
323.2	.674	.224	.002	.928	.002	.065	.002
323.2	.76	.182	.002	.891	.002	.092	.002
283.2	.355	.199	.002	.946	.002	.053	.002
283.2	.425	.261	.002	.927	.002	.071	.002
283.2	.463	.294	.002	.904	.002	.092	.002
283.2	.484	.313	.002	.882	.002	.111	.002
283.2	.559	.296	.002	.841	.002	.146	.002
303.2	.391	.129	.002	.976	.002	.023	.002
283.2	.595	.285	.002	.817	.002	.164	.002
303.2	.329	0	.002	.999	.002	0	.002
303.2	.461	.22	.002	.957	.002	.042	.002
303.2	.526	.265	.002	.935	.002	.062	.002
303.2	.577	.27	.002	.917	.002	.078	.002
303.2	.64	.252	.002	.897	.002	.094	.002
303.2	.689	.232	.002	.87	.002	.116	.002
323.2	.419	0	.002	.999	.002	0	.002
323.2	.484	.138	.002	.98	.002	.018	.002

System: 1-propanol + water + 1-hexyl-3-methylimidazolium bis(trifluoromethylsulfonyl)imide; phases: Liquid mixture 2, Liquid mixture 1
Fixed: Pressure, kPa = 101.3
Property: Mole fraction of 1-propanol (Liquid mixture 2); method: Chromatography
Property: Mole fraction of water (Liquid mixture 1); method: Chromatography
Property: Mole fraction of 1-propanol (Liquid mixture 1); method: Chromatography
Temperature, K	Mole fraction of water	Mole fraction of 1-propanol	uncertainty	Mole fraction of water	uncertainty	Mole fraction of 1-propanol	uncertainty
283.2	1	0	.002	.166	.002	0	.002
283.2	.851	.145	.002	.636	.002	.321	.002
303.2	1	0	.002	.233	.002	0	.002
303.2	.973	.027	.002	.31	.002	.173	.002
303.2	.957	.043	.002	.367	.002	.296	.002
303.2	.945	.054	.002	.433	.002	.351	.002
303.2	.936	.064	.002	.49	.002	.365	.002
303.2	.93	.069	.002	.517	.002	.364	.002
303.2	.918	.081	.002	.565	.002	.35	.002
303.2	.909	.09	.002	.61	.002	.329	.002
303.2	.901	.097	.002	.634	.002	.315	.002
283.2	.973	.027	.002	.217	.002	.133	.002
303.2	.883	.114	.002	.677	.002	.286	.002
323.2	1	0	.002	.308	.002	0	.002
323.2	.98	.02	.002	.37	.002	.199	.002
323.2	.965	.034	.002	.437	.002	.295	.002
323.2	.955	.044	.002	.486	.002	.34	.002
323.2	.944	.055	.002	.547	.002	.336	.002
323.2	.937	.062	.002	.577	.002	.336	.002
323.2	.88	.115	.002	.759	.002	.219	.002
323.2	.909	.089	.002	.677	.002	.28	.002
323.2	.925	.073	.002	.629	.002	.308	.002
283.2	.95	.05	.002	.276	.002	.26	.002
283.2	.934	.065	.002	.349	.002	.357	.002
283.2	.922	.078	.002	.407	.002	.388	.002
283.2	.911	.089	.002	.458	.002	.394	.002
283.2	.897	.102	.002	.497	.002	.388	.002
283.2	.889	.11	.002	.532	.002	.379	.002
283.2	.872	.125	.002	.58	.002	.356	.002
