Measured thermophysical data. Solubility of carbon dioxide in pentaerythritol tetraoctanoate
Source: Fluid Phase Equilib., 2009, 10.1016/j.fluid.2008.11.011
Compound 1: carbon dioxide, CO2
Compound 2: pentaerythritol ester octanoic acid, C37H68O8

System: carbon dioxide + pentaerythritol ester octanoic acid; phases: Liquid, Gas
Property: Vapor or sublimation pressure, kPa (Liquid); method: Closed cell (Static) method
Temperature, K	Mole fraction of carbon dioxide	Vapor or sublimation pressure, kPa	uncertainty
273.15	.7493	2200	
273.15	.7899	2480	
273.15	.8416	2870	
273.15	.8861	3190	
273.15	.9267	3410	
273.15	.9392	3450	
283.15	.1786	310	
283.15	.289	560	
283.15	.4094	920	
283.15	.5336	1400	
283.15	.6362	1940	
283.15	.7342	2650	
283.15	.8196	3450	
283.15	.8605	3870	
283.15	.8962	4220	
283.15	.923	4410	
283.15	.933	4450	
303.15	.1148	250	
303.15	.2482	630	
303.15	.3243	890	
303.15	.3899	1170	
303.15	.4917	1720	
303.15	.5723	2260	
303.15	.6391	2820	
303.15	.69	3360	
303.15	.7472	4060	
303.15	.7951	4780	
303.15	.8446	5770	
303.15	.8898	6700	
303.15	.9066	7080	
323.15	.0974	290	
323.15	.2172	700	
323.15	.2849	1000	
323.15	.3494	1310	
323.15	.4443	1940	
323.15	.5236	2570	
323.15	.5891	3220	
323.15	.6414	3870	
323.15	.7006	4720	
323.15	.7486	5640	
323.15	.8158	7310	
323.15	.843	8200	
323.15	.8624	8820	
323.15	.8873	9810	
343.15	.0869	310	
343.15	.195	770	
343.15	.2595	1100	
343.15	.3207	1440	
343.15	.4095	2140	
343.15	.4974	2860	
343.15	.5542	3590	
343.15	.6152	4340	
343.15	.6764	5330	
343.15	.725	6430	
343.15	.7985	8500	
343.15	.8325	9700	
