Measured thermophysical data. Isothermal vapor-liquid equilibria for methanol and 2,3-dimethyl-2-butene at 343.15 K, 353.15 K, 363.15 K, 373.15 K
Source: Fluid Phase Equilib., 2011, 10.1016/j.fluid.2011.07.014
Compound 1: methanol, CH4O, purity 99.5%
Compound 2: 2,3-dimethyl-2-butene, C6H12, purity 99.5%

System: 2,3-dimethyl-2-butene; phases: Liquid, Gas
Property: Vapor or sublimation pressure, kPa (Liquid); method: Ebulliometric method (Recirculating still)
Temperature, K	Vapor or sublimation pressure, kPa	uncertainty
336.5	73.5	.5
338.2	77.5	.5
340.6	84.2	.5
342.65	90.2	.5
344.2	94.7	.5
346.24	101.2	.5
347.65	105.3	.5
350.1	113.9	.5
353.46	125.5	.5
355.35	133.3	.5
357.22	140.4	.5
362.8	164.8	.5
365.76	179.5	.5
368.05	190.9	.5
370.36	202.8	.5
373.18	218.8	.5
375.2	230.4	.5
376.5	238.5	.5
379.15	255.1	.5
381.62	271.2	.5
383.05	281.3	.5
384.7	292.1	.5
386.65	306.8	.5
388.2	318.4	.5

System: methanol + 2,3-dimethyl-2-butene; phases: Liquid, Gas
Property: Vapor or sublimation pressure, kPa (Liquid); method: Ebulliometric method (Recirculating still)
Mole fraction of methanol	Temperature, K	Vapor or sublimation pressure, kPa	uncertainty
0	343.15	91.5	.5
.068	343.15	155.5	.5
.109	343.15	169.5	.5
.183	343.15	181.2	.5
.253	343.15	186.4	.5
.326	343.15	189.3	.5
.416	343.15	190	.5
.433	343.15	190.3	.5
.448	343.15	190.8	.5
.528	343.15	191.2	.5
.605	343.15	191.4	.5
.621	343.15	191.1	.5
.652	343.15	190.4	.5
.659	343.15	190.3	.5
.739	343.15	189.3	.5
.81	343.15	185.4	.5
.852	343.15	182.9	.5
.898	343.15	175.3	.5
.948	343.15	161.1	.5
.964	343.15	153.1	.5
.969	343.15	150.8	.5
1	343.15	125.3	.5
0	353.15	124.8	.5
.079	353.15	216.7	.5
.143	353.15	242.8	.5
.205	353.15	253.8	.5
.333	353.15	263.7	.5
.409	353.15	266.1	.5
.423	353.15	266.4	.5
.429	353.15	267.4	.5
.578	353.15	268.1	.5
.611	353.15	268.3	.5
.624	353.15	268.1	.5
.665	353.15	267.3	.5
.668	353.15	266.3	.5
.742	353.15	265.2	.5
.874	353.15	254.1	.5
.91	353.15	245.5	.5
.944	353.15	231.9	.5
.989	353.15	196.1	.5
1	353.15	180.9	.5
0	363.15	166.9	.5
.073	363.15	283.8	.5
.092	363.15	298.6	.5
.133	363.15	323	.5
.192	363.15	342.6	.5
.26	363.15	354	.5
.379	363.15	364.5	.5
.41	363.15	365.6	.5
.427	363.15	366.2	.5
.573	363.15	369.4	.5
.612	363.15	369.5	.5
.628	363.15	368.3	.5
.677	363.15	367.9	.5
.744	363.15	367.1	.5
.834	363.15	360.1	.5
.883	363.15	348.9	.5
.906	363.15	343.1	.5
.971	363.15	299.4	.5
.983	363.15	284.1	.5
.995	363.15	265.2	.5
1	363.15	255.5	.5
0	373.15	219.2	.5
.055	373.15	343.8	.5
.11	373.15	407.5	.5
.174	373.15	447.9	.5
.248	373.15	471.1	.5
.361	373.15	488.6	.5
.385	373.15	490.2	.5
.405	373.15	492.3	.5
.497	373.15	496.5	.5
.566	373.15	497.8	.5
.611	373.15	498.9	.5
.63	373.15	498.3	.5
.686	373.15	497.8	.5
.749	373.15	496.1	.5
.824	373.15	488	.5
.885	373.15	472.4	.5
.916	373.15	460.3	.5
.926	373.15	453.6	.5
.933	373.15	447.8	.5
.966	373.15	415.9	.5
.977	373.15	400.9	.5
.985	373.15	387.1	.5
1	373.15	353.6	.5

System: methanol + 2,3-dimethyl-2-butene; phases: Gas, Liquid
Property: Mole fraction of methanol (Gas); method: Chromatography
Mole fraction of methanol	Temperature, K	Mole fraction of methanol	uncertainty
0	343.15	0	.003
.068	343.15	.419	.003
.109	343.15	.473	.003
.183	343.15	.519	.003
.253	343.15	.543	.003
.326	343.15	.549	.003
.416	343.15	.559	.003
.433	343.15	.56	.003
.448	343.15	.562	.003
.528	343.15	.57	.003
.605	343.15	.578	.003
.621	343.15	.58	.003
.652	343.15	.583	.003
.659	343.15	.584	.003
.739	343.15	.593	.003
.81	343.15	.616	.003
.852	343.15	.638	.003
.898	343.15	.677	.003
.948	343.15	.759	.003
.964	343.15	.807	.003
.969	343.15	.826	.003
1	343.15	1	.003
0	353.15	0	.003
.079	353.15	.434	.003
.143	353.15	.505	.003
.205	353.15	.537	.003
.333	353.15	.568	.003
.409	353.15	.578	.003
.423	353.15	.579	.003
.429	353.15	.58	.003
.578	353.15	.594	.003
.611	353.15	.598	.003
.624	353.15	.601	.003
.665	353.15	.607	.003
.668	353.15	.607	.003
.742	353.15	.617	.003
.874	353.15	.662	.003
.91	353.15	.694	.003
.944	353.15	.746	.003
.989	353.15	.912	.003
1	353.15	1	.003
0	363.15	0	.003
.073	363.15	.419	.003
.092	363.15	.454	.003
.133	363.15	.501	.003
.192	363.15	.538	.003
.26	363.15	.561	.003
.379	363.15	.585	.003
.41	363.15	.589	.003
.427	363.15	.591	.003
.573	363.15	.606	.003
.612	363.15	.612	.003
.628	363.15	.618	.003
.677	363.15	.623	.003
.744	363.15	.635	.003
.834	363.15	.661	.003
.883	363.15	.687	.003
.906	363.15	.708	.003
.971	363.15	.839	.003
.983	363.15	.889	.003
.995	363.15	.96	.003
1	363.15	1	.003
0	373.15	0	.003
.055	373.15	.367	.003
.11	373.15	.474	.003
.174	373.15	.53	.003
.248	373.15	.564	.003
.361	373.15	.593	.003
.385	373.15	.594	.003
.405	373.15	.597	.003
.497	373.15	.614	.003
.566	373.15	.614	.003
.611	373.15	.624	.003
.63	373.15	.626	.003
.686	373.15	.633	.003
.749	373.15	.648	.003
.824	373.15	.669	.003
.885	373.15	.703	.003
.916	373.15	.732	.003
.926	373.15	.749	.003
.933	373.15	.767	.003
.966	373.15	.835	.003
.977	373.15	.873	.003
.985	373.15	.907	.003
1	373.15	1	.003
