Measured thermophysical data. Physicochemical properties of piperidinium, ammonium, pyrrolidinium and morpholinium ionic liquids paired with bis(trifluoromethylsulfonyl)imide anion
Source: Fluid Phase Equilib., 2016, 10.1016/j.fluid.2016.06.028
Compound 1: 1-(2-methoxyethyl)-1-methylpiperidinium bis(trifluoromethylsulfonyl)imide, C11H20F6N2O5S2, purity 98%
Compound 2: 4-(2-methoxyethyl)-4-methylmorpholinium bis(trifluoromethylsulfonyl)amide, C10H18F6N2O6S2, purity 98%
Compound 3: 1-(2-methoxyethyl)-1-methylpyrrolidinium bis((trifluoromethyl)sulfonyl)amide, C10H18F6N2O5S2, purity 98%
Compound 4: N-ethyl-N,N-dimethyl-2- methoxyethylammonium bis(trifluoromethylsulfonyl)imide, C9H18F6N2O5S2, purity 98%
Compound 5: N-ethyl-N,N-dimethyl-1-propanaminium 1,1,1-trifluoro-N-[(trifluoromethyl)sulfonyl]methanesulfonamide, C9H18F6N2O4S2, purity 98%

System: 1-(2-methoxyethyl)-1-methylpiperidinium bis(trifluoromethylsulfonyl)imide; phases: Liquid
Fixed: Pressure, kPa = 101.325
Property: Mass density, kg/m3 (Liquid); method: Vibrating tube method
Temperature, K	Mass density, kg/m3	uncertainty
298.15	1433.2	
303.15	1429	
313.15	1419.8	
323.15	1410.7	
333.15	1401.7	
343.15	1392.5	
353.15	1383.3	

System: 1-(2-methoxyethyl)-1-methylpiperidinium bis(trifluoromethylsulfonyl)imide; phases: Liquid
Fixed: Pressure, kPa = 101.325
Property: Viscosity, Pa*s (Liquid); method: Concentric cylinders viscometry
Temperature, K	Viscosity, Pa*s	uncertainty
298.15	.06989	
303.15	.05579	
313.15	.03569	
323.15	.026	
333.15	.0198	
343.15	.0156	
353.15	.0138	

System: 1-(2-methoxyethyl)-1-methylpiperidinium bis(trifluoromethylsulfonyl)imide; phases: Liquid
Fixed: Pressure, kPa = 101.325
Property: Electrical conductivity, S/m (Liquid); method: Direct current cell with electrodes
Temperature, K	Electrical conductivity, S/m	uncertainty
298.15	.209	
303.15	.241	
313.15	.287	
323.15	.325	
333.15	.396	
343.15	.489	
353.15	.599	

System: 1-(2-methoxyethyl)-1-methylpiperidinium bis(trifluoromethylsulfonyl)imide; phases: Liquid, Air at 1 atmosphere
Property: Surface tension liquid-gas, N/m (Liquid); method: Ring tensiometer
Temperature, K	Surface tension liquid-gas, N/m	uncertainty
298.15	.04465	
303.15	.04406	
313.15	.0432	
323.15	.04201	
333.15	.04098	
343.15	.04019	
353.15	.03883	

System: 4-(2-methoxyethyl)-4-methylmorpholinium bis(trifluoromethylsulfonyl)amide; phases: Liquid
Fixed: Pressure, kPa = 101.325
Property: Mass density, kg/m3 (Liquid); method: Vibrating tube method
Temperature, K	Mass density, kg/m3	uncertainty
298.15	1500.2	
303.15	1495.7	
313.15	1486.4	
323.15	1477.2	
333.15	1468	
343.15	1458.9	
353.15	1449.8	

System: 4-(2-methoxyethyl)-4-methylmorpholinium bis(trifluoromethylsulfonyl)amide; phases: Liquid
Fixed: Pressure, kPa = 101.325
Property: Viscosity, Pa*s (Liquid); method: Concentric cylinders viscometry
Temperature, K	Viscosity, Pa*s	uncertainty
298.15	.2576	
303.15	.2109	
313.15	.1272	
323.15	.07798	
333.15	.05189	
343.15	.03749	
353.15	.02759	

System: 4-(2-methoxyethyl)-4-methylmorpholinium bis(trifluoromethylsulfonyl)amide; phases: Liquid
Fixed: Pressure, kPa = 101.325
Property: Electrical conductivity, S/m (Liquid); method: Direct current cell with electrodes
Temperature, K	Electrical conductivity, S/m	uncertainty
298.15	.065	
303.15	.079	
313.15	.108	
323.15	.136	
333.15	.17	
343.15	.257	
353.15	.334	

System: 4-(2-methoxyethyl)-4-methylmorpholinium bis(trifluoromethylsulfonyl)amide; phases: Liquid, Air at 1 atmosphere
Property: Surface tension liquid-gas, N/m (Liquid); method: Ring tensiometer
Temperature, K	Surface tension liquid-gas, N/m	uncertainty
298.15	.05014	
303.15	.0493	
313.15	.04841	
323.15	.04764	
333.15	.0463	
343.15	.04536	
353.15	.04474	

System: 1-(2-methoxyethyl)-1-methylpyrrolidinium bis((trifluoromethyl)sulfonyl)amide; phases: Liquid
Fixed: Pressure, kPa = 101.325
Property: Mass density, kg/m3 (Liquid); method: Vibrating tube method
Temperature, K	Mass density, kg/m3	uncertainty
298.15	1453	
303.15	1448.7	
313.15	1439.3	
323.15	1429.9	
333.15	1420.7	
343.15	1411.2	
353.15	1401.9	

System: 1-(2-methoxyethyl)-1-methylpyrrolidinium bis((trifluoromethyl)sulfonyl)amide; phases: Liquid
Fixed: Pressure, kPa = 101.325
Property: Viscosity, Pa*s (Liquid); method: Concentric cylinders viscometry
Temperature, K	Viscosity, Pa*s	uncertainty
298.15	.05219	
303.15	.04649	
313.15	.03449	
323.15	.02579	
333.15	.0201	
343.15	.0168	
353.15	.0135	

System: 1-(2-methoxyethyl)-1-methylpyrrolidinium bis((trifluoromethyl)sulfonyl)amide; phases: Liquid
Fixed: Pressure, kPa = 101.325
Property: Electrical conductivity, S/m (Liquid); method: Direct current cell with electrodes
Temperature, K	Electrical conductivity, S/m	uncertainty
298.15	.345	
303.15	.402	
313.15	.48	
323.15	.534	
333.15	.59	
343.15	.648	
353.15	.699	

System: 1-(2-methoxyethyl)-1-methylpyrrolidinium bis((trifluoromethyl)sulfonyl)amide; phases: Liquid, Air at 1 atmosphere
Property: Surface tension liquid-gas, N/m (Liquid); method: Ring tensiometer
Temperature, K	Surface tension liquid-gas, N/m	uncertainty
298.15	.04922	
303.15	.04862	
313.15	.04734	
323.15	.04618	
333.15	.045	
343.15	.04426	
353.15	.04228	

System: N-ethyl-N,N-dimethyl-2- methoxyethylammonium bis(trifluoromethylsulfonyl)imide; phases: Liquid
Fixed: Pressure, kPa = 101.325
Property: Mass density, kg/m3 (Liquid); method: Vibrating tube method
Temperature, K	Mass density, kg/m3	uncertainty
298.15	1424.9	
303.15	1420.5	
313.15	1411	
323.15	1401.5	
333.15	1390.3	
343.15	1379.2	
353.15	1368.9	

System: N-ethyl-N,N-dimethyl-2- methoxyethylammonium bis(trifluoromethylsulfonyl)imide; phases: Liquid
Fixed: Pressure, kPa = 101.325
Property: Viscosity, Pa*s (Liquid); method: Concentric cylinders viscometry
Temperature, K	Viscosity, Pa*s	uncertainty
298.15	.05939	
303.15	.05039	
313.15	.03059	
323.15	.0231	
333.15	.0183	
343.15	.015	
353.15	.0132	

System: N-ethyl-N,N-dimethyl-2- methoxyethylammonium bis(trifluoromethylsulfonyl)imide; phases: Liquid
Fixed: Pressure, kPa = 101.325
Property: Electrical conductivity, S/m (Liquid); method: Direct current cell with electrodes
Temperature, K	Electrical conductivity, S/m	uncertainty
298.15	.288	
303.15	.315	
313.15	.357	
323.15	.395	
333.15	.465	
343.15	.551	
353.15	.633	

System: N-ethyl-N,N-dimethyl-2- methoxyethylammonium bis(trifluoromethylsulfonyl)imide; phases: Liquid, Air at 1 atmosphere
Property: Surface tension liquid-gas, N/m (Liquid); method: Ring tensiometer
Temperature, K	Surface tension liquid-gas, N/m	uncertainty
298.15	.04756	
303.15	.04732	
313.15	.04567	
323.15	.04486	
333.15	.04346	
343.15	.04223	
353.15	.04044	

System: N-ethyl-N,N-dimethyl-1-propanaminium 1,1,1-trifluoro-N-[(trifluoromethyl)sulfonyl]methanesulfonamide; phases: Liquid
Fixed: Pressure, kPa = 101.325
Property: Mass density, kg/m3 (Liquid); method: Vibrating tube method
Temperature, K	Mass density, kg/m3	uncertainty
298.15	1403	
303.15	1398.8	
313.15	1389.8	
323.15	1381	
333.15	1372.1	
343.15	1362.4	
353.15	1352.7	

System: N-ethyl-N,N-dimethyl-1-propanaminium 1,1,1-trifluoro-N-[(trifluoromethyl)sulfonyl]methanesulfonamide; phases: Liquid
Fixed: Pressure, kPa = 101.325
Property: Viscosity, Pa*s (Liquid); method: Concentric cylinders viscometry
Temperature, K	Viscosity, Pa*s	uncertainty
298.15	.05879	
303.15	.05339	
313.15	.03839	
323.15	.02849	
333.15	.0213	
343.15	.0171	
353.15	.0141	

System: N-ethyl-N,N-dimethyl-1-propanaminium 1,1,1-trifluoro-N-[(trifluoromethyl)sulfonyl]methanesulfonamide; phases: Liquid
Fixed: Pressure, kPa = 101.325
Property: Electrical conductivity, S/m (Liquid); method: Direct current cell with electrodes
Temperature, K	Electrical conductivity, S/m	uncertainty
298.15	.248	
303.15	.281	
313.15	.325	
323.15	.358	
333.15	.414	
343.15	.519	
353.15	.634	

System: N-ethyl-N,N-dimethyl-1-propanaminium 1,1,1-trifluoro-N-[(trifluoromethyl)sulfonyl]methanesulfonamide; phases: Liquid, Air at 1 atmosphere
Property: Surface tension liquid-gas, N/m (Liquid); method: Ring tensiometer
Temperature, K	Surface tension liquid-gas, N/m	uncertainty
298.15	.04656	
303.15	.04584	
313.15	.04492	
323.15	.04395	
333.15	.04334	
343.15	.04203	
353.15	.04089	
