Measured thermophysical data. Solid-liquid equilibrium, crystal type, solid solubility and thermal stability studies of potassium ammonium chloride solid solution
Source: Fluid Phase Equilib., 2017, 10.1016/j.fluid.2017.02.015
Compound 1: water, H2O, purity 99.9%
Compound 2: potassium chloride, ClK, purity 99.5%
Compound 3: ammonium chloride, ClH4N, purity 99.5%

System: potassium chloride + water + ammonium chloride; phases: Liquid, Crystal
Fixed: Pressure, kPa = 100
Property: Mass fraction of ammonium chloride (Liquid); method: crystallizer with magnetic stirring
Temperature, K	Mass fraction of potassium chloride	Mass fraction of ammonium chloride	uncertainty
373.15	0	.436	
373.15	.018	.4304	
373.15	.031	.4293	
373.15	.0759	.4005	
373.15	.0867	.3933	
373.15	.1089	.3826	
373.15	.1237	.3751	
373.15	.1237	.3751	
373.15	.1237	.3751	
373.15	.1487	.323	
373.15	.1612	.2791	
373.15	.166	.2433	
373.15	.181	.1957	
373.15	.1829	.1783	
373.15	.1862	.1785	
373.15	.2055	.1491	
373.15	.2311	.1316	
363.15	0	.4162	
363.15	.0238	.4125	
363.15	.0491	.398	
363.15	.0693	.3817	
363.15	.0857	.3704	
363.15	.0981	.3595	
363.15	.1157	.3497	
363.15	.1157	.3497	
363.15	.1157	.3497	
363.15	.1437	.2877	
363.15	.1526	.2552	
363.15	.168	.2139	
363.15	.1753	.1916	
363.15	.1832	.1825	
363.15	.2037	.1519	
363.15	.2275	.1307	
353.15	0	.3962	
353.15	.0266	.3826	
353.15	.0572	.3667	
353.15	.0627	.3629	
353.15	.0897	.3425	
353.15	.091	.3338	
353.15	.0973	.3314	
353.15	.1097	.3223	
353.15	.1097	.3223	
353.15	.1097	.3223	
353.15	.1097	.3223	
353.15	.1262	.2963	
353.15	.1392	.2671	
353.15	.155	.2321	
353.15	.1677	.2049	
353.15	.1802	.1865	
353.15	.2019	.1547	
353.15	.2239	.1298	
353.15	.2628	.0854	
343.15	0	.3788	
343.15	.0234	.3637	
343.15	.0534	.3444	
343.15	.0601	.3401	
343.15	.0787	.3266	
343.15	.0872	.3204	
343.15	.0953	.3143	
343.15	.1013	.3101	
343.15	.1087	.3048	
343.15	.1087	.3048	
343.15	.1087	.3048	
343.15	.1087	.3048	
343.15	.1258	.279	
343.15	.1421	.2503	
343.15	.1601	.2182	
343.15	.1772	.1905	
343.15	.2001	.1575	
343.15	.2203	.1289	
343.15	.2438	.0992	
343.15	.2695	.0664	
333.15	0	.3571	
333.15	.0262	.3388	
333.15	.0476	.3241	
333.15	.0585	.3163	
333.15	.0677	.3107	
333.15	.0856	.2999	
333.15	.0974	.2928	
333.15	.1073	.2868	
333.15	.1096	.2854	
333.15	.1096	.2854	
333.15	.1096	.2854	
333.15	.1096	.2854	
333.15	.1274	.2597	
333.15	.1469	.2316	
333.15	.1672	.2023	
333.15	.1887	.1741	
333.15	.2189	.1296	
333.15	.2406	.1012	
333.15	.2617	.0706	
323.15	0	.3365	
323.15	.029	.3171	
323.15	.0483	.3042	
323.15	.0585	.2975	
323.15	.0677	.2911	
323.15	.0888	.2766	
323.15	.1035	.2664	
323.15	.1105	.2616	
323.15	.1105	.2616	
323.15	.1105	.2616	
323.15	.1105	.2616	
323.15	.1263	.239	
323.15	.1493	.2062	
323.15	.1618	.1884	
323.15	.1834	.1576	
323.15	.2013	.132	
323.15	.2273	.095	
323.15	.2466	.0675	
313.15	0	.315	
313.15	.0249	.3	
313.15	.0521	.2827	
313.15	.0586	.2785	
313.15	.06	.2774	
313.15	.0781	.2632	
313.15	.0996	.2464	
313.15	.1114	.2372	
313.15	.1114	.2372	
313.15	.1114	.2372	
313.15	.1135	.2342	
313.15	.1308	.2099	
313.15	.1507	.182	
313.15	.1625	.1654	
313.15	.1723	.1517	
313.15	.197	.117	
313.15	.2136	.0936	
313.15	.238	.0594	
303.15	0	.2929	
303.15	.0187	.2818	
303.15	.0391	.2711	
303.15	.0587	.2596	
303.15	.0696	.2526	
303.15	.0802	.2452	
303.15	.091	.2379	
303.15	.1018	.2305	
303.15	.112	.223	
303.15	.1123	.2237	
303.15	.1123	.2237	
303.15	.1123	.2237	
303.15	.1184	.2155	
303.15	.1291	.1963	
303.15	.1405	.1809	
303.15	.1573	.153	
303.15	.174	.1311	
303.15	.199	.0994	
303.15	.2206	.0685	
303.15	.2296	.0524	
293.15	0	.2706	
293.15	.0125	.2635	
293.15	.0263	.2592	
293.15	.0589	.2404	
293.15	.0793	.2275	
293.15	.0825	.227	
293.15	.0924	.2234	
293.15	.1134	.21	
293.15	.1134	.21	
293.15	.1134	.21	
293.15	.1237	.1963	
293.15	.1276	.1825	
293.15	.1303	.1796	
293.15	.1522	.1403	
293.15	.1759	.1102	
293.15	.2012	.0815	
293.15	.2276	.0433	
293.15	.2213	.0452	
283.15	0	.2498	
283.15	.0133	.2475	
283.15	.0499	.2308	
283.15	.0738	.2206	
283.15	.083	.2165	
283.15	.1212	.1985	
283.15	.1212	.1985	
283.15	.1212	.1985	
283.15	.1283	.1784	
283.15	.1357	.159	
283.15	.1438	.1397	
283.15	.1494	.1226	
283.15	.1647	.0916	
283.15	.1828	.0698	
283.15	.2128	.0384	
273.15	0	.2273	
273.15	.0168	.2238	
273.15	.0409	.2212	
273.15	.0683	.2137	
273.15	.0835	.1912	
273.15	.1249	.1835	
273.15	.1249	.1835	
273.15	.1249	.1835	
273.15	.129	.1743	
273.15	.1211	.1584	
273.15	.1427	.0961	
273.15	.2043	.0316	
263.15	0	.2016	
263.15	.0243	.1961	
263.15	.0474	.1856	
263.15	.0696	.1791	
263.15	.1308	.1745	
263.15	.1308	.1745	
263.15	.1308	.1745	
263.15	.1381	.1634	
263.15	.1452	.1528	
263.15	.1602	.1042	
263.15	.1743	.068	
263.15	.1854	.0338	

System: potassium chloride + water + ammonium chloride; phases: Liquid, Crystal
Fixed: Pressure, kPa = 100
Property: Mass fraction of ammonium chloride (Liquid); method: crystallizer with magnetic stirring
Temperature, K	Mass fraction of potassium chloride	Mass fraction of ammonium chloride	uncertainty
373.15	.0759	.4005	
373.15	.0867	.3933	
373.15	.1089	.3826	
373.15	.1237	.3751	
373.15	.1237	.3751	
373.15	.1237	.3751	
373.15	.1487	.323	
373.15	.1612	.2791	
373.15	.166	.2433	
373.15	.181	.1957	
373.15	.1829	.1783	
373.15	.1862	.1785	
373.15	.2055	.1491	
373.15	.2311	.1316	
373.15	.2832	.0601	
373.15	.3316	0	
363.15	.0693	.3817	
363.15	.0857	.3704	
363.15	.0981	.3595	
363.15	.1157	.3497	
363.15	.1157	.3497	
363.15	.1157	.3497	
363.15	.1437	.2877	
363.15	.1526	.2552	
363.15	.168	.2139	
363.15	.1753	.1916	
363.15	.1832	.1825	
363.15	.2037	.1519	
363.15	.2275	.1307	
363.15	.2818	.0716	
363.15	.2913	.0712	
363.15	.3149	.0461	
363.15	.3502	0	
353.15	.0627	.3629	
353.15	.0897	.3425	
353.15	.091	.3338	
353.15	.0973	.3314	
353.15	.1097	.3223	
353.15	.1097	.3223	
353.15	.1097	.3223	
353.15	.1097	.3223	
353.15	.1262	.2963	
353.15	.1392	.2671	
353.15	.155	.2321	
353.15	.1677	.2049	
353.15	.1802	.1865	
353.15	.2019	.1547	
353.15	.2239	.1298	
353.15	.2628	.0854	
353.15	.2804	.0688	
353.15	.2986	.0485	
353.15	.3391	0	
343.15	.0601	.3401	
343.15	.0787	.3266	
343.15	.0872	.3204	
343.15	.0953	.3143	
343.15	.1013	.3101	
343.15	.1087	.3048	
343.15	.1087	.3048	
343.15	.1087	.3048	
343.15	.1087	.3048	
343.15	.1258	.279	
343.15	.1421	.2503	
343.15	.1601	.2182	
343.15	.1772	.1905	
343.15	.2001	.1575	
343.15	.2203	.1289	
343.15	.2438	.0992	
343.15	.2695	.0664	
343.15	.2823	.0509	
343.15	.2987	.0322	
343.15	.3224	0	
333.15	.0677	.3107	
333.15	.0856	.2999	
333.15	.0974	.2928	
333.15	.1073	.2868	
333.15	.1096	.2854	
333.15	.1096	.2854	
333.15	.1096	.2854	
333.15	.1096	.2854	
333.15	.1274	.2597	
333.15	.1469	.2316	
333.15	.1672	.2023	
333.15	.1887	.1741	
333.15	.2189	.1296	
333.15	.2406	.1012	
333.15	.2617	.0706	
333.15	.271	.0526	
333.15	.2822	.035	
333.15	.3008	.0139	
333.15	.3115	0	
323.15	.0677	.2911	
323.15	.0888	.2766	
323.15	.1035	.2664	
323.15	.1105	.2616	
323.15	.1105	.2616	
323.15	.1105	.2616	
323.15	.1105	.2616	
323.15	.1263	.239	
323.15	.1493	.2062	
323.15	.1618	.1884	
323.15	.1834	.1576	
323.15	.2013	.132	
323.15	.2273	.095	
323.15	.2466	.0675	
323.15	.2608	.0472	
323.15	.2792	.0257	
323.15	.3011	0	
313.15	.06	.2774	
313.15	.0781	.2632	
313.15	.0996	.2464	
313.15	.1114	.2372	
313.15	.1114	.2372	
313.15	.1114	.2372	
313.15	.1135	.2342	
313.15	.1308	.2099	
313.15	.1507	.182	
313.15	.1625	.1654	
313.15	.1723	.1517	
313.15	.197	.117	
313.15	.2136	.0936	
313.15	.238	.0594	
313.15	.2505	.0418	
313.15	.2659	.0244	
313.15	.2887	0	
303.15	.0696	.2526	
303.15	.0802	.2452	
303.15	.091	.2379	
303.15	.1018	.2305	
303.15	.112	.223	
303.15	.1123	.2237	
303.15	.1123	.2237	
303.15	.1123	.2237	
303.15	.1184	.2155	
303.15	.1291	.1963	
303.15	.1405	.1809	
303.15	.1573	.153	
303.15	.174	.1311	
303.15	.199	.0994	
303.15	.2206	.0685	
303.15	.2296	.0524	
303.15	.2403	.0363	
303.15	.2568	.0182	
303.15	.2734	0	
293.15	.0793	.2275	
293.15	.0825	.227	
293.15	.0924	.2234	
293.15	.1134	.21	
293.15	.1134	.21	
293.15	.1134	.21	
293.15	.1237	.1963	
293.15	.1276	.1825	
293.15	.1303	.1796	
293.15	.1522	.1403	
293.15	.1759	.1102	
293.15	.2012	.0815	
293.15	.2276	.0433	
293.15	.2213	.0452	
293.15	.2304	.0305	
293.15	.2477	.012	
293.15	.2551	0	
283.15	.0738	.2206	
283.15	.083	.2165	
283.15	.1212	.1985	
283.15	.1212	.1985	
283.15	.1212	.1985	
283.15	.1283	.1784	
283.15	.1357	.159	
283.15	.1438	.1397	
283.15	.1494	.1226	
283.15	.1647	.0916	
283.15	.1828	.0698	
283.15	.2128	.0384	
283.15	.2199	.0253	
283.15	.2387	0	
273.15	.0683	.2137	
273.15	.0835	.1912	
273.15	.1249	.1835	
273.15	.1249	.1835	
273.15	.1249	.1835	
273.15	.129	.1743	
273.15	.1211	.1584	
273.15	.1427	.0961	
273.15	.2043	.0316	
273.15	.2094	.0201	
273.15	.221	0	
263.15	.0696	.1791	
263.15	.1308	.1745	
263.15	.1308	.1745	
263.15	.1308	.1745	
263.15	.1381	.1634	
263.15	.1452	.1528	
263.15	.1602	.1042	
263.15	.1743	.068	
263.15	.1854	.0338	
263.15	.1989	.0149	
263.15	.2011	0	

System: water + ammonium chloride; phases: Liquid, Crystal
Property: Mass fraction of ammonium chloride (Liquid); method: crystallizer with magnetic stirring
Temperature, K	Pressure, kPa	Mass fraction of ammonium chloride	uncertainty
373.15	100	.436	
363.15	100	.4162	
353.15	100	.3962	
343.15	100	.3788	
333.15	100	.3571	
323.15	100	.3365	
313.15	100	.315	
303.15	100	.2929	
293.15	100	.2706	
283.15	100	.2498	
273.15	100	.2273	
263.15	100	.2016	

System: potassium chloride + water; phases: Liquid, Crystal
Property: Solid-liquid equilibrium temperature, K (Liquid); method: crystallizer with magnetic stirring
Mass fraction of potassium chloride	Pressure, kPa	Solid-liquid equilibrium temperature, K	uncertainty
.3316	100	373.15	
.3502	100	363.15	
.3391	100	353.15	
.3224	100	343.15	
.3115	100	333.15	
.3011	100	323.15	
.2887	100	313.15	
.2734	100	303.15	
.2551	100	293.15	
.2387	100	283.15	
.221	100	273.15	
.2011	100	263.15	
