Measured thermophysical data. Solubility of fluvoxamine maleate in supercritical carbon dioxide
Source: Fluid Phase Equilib., 2015, 10.1016/j.fluid.2015.04.030
Compound 1: fluvoxamine maleate, C19H25F3N2O6, purity 98.8%
Compound 2: carbon dioxide, CO2, purity 99.8%
Compound 3: piroxicam, C15H13N3O4S, purity 98%

System: carbon dioxide + fluvoxamine maleate; phases: Fluid (supercritical or subcritical phases), Crystal
Property: Mole fraction of fluvoxamine maleate (Fluid (supercritical or subcritical phases)); method: Phase equilibration
Temperature, K	Pressure, kPa	Mole fraction of fluvoxamine maleate	uncertainty
308	24000	.0000123	.00000984
308	28000	.0000146	.00000984
308	32000	.0000198	.00000984
308	36000	.0000245	.00000984
308	40000	.0000298	.00000984
318	20000	.0000187	.00000984
318	24000	.0000274	.00000984
318	28000	.0000401	.00000984
318	32000	.0000601	.00000984
318	36000	.0000802	.00000984
318	40000	.00011	.00000984
328	20000	.0000325	.00000984
328	24000	.0000782	.00000984
328	28000	.000101	.00000984
328	32000	.000171	.00000984
328	36000	.000235	.00000984
328	40000	.0003	.00000984
338	20000	.0000387	.00000984
338	24000	.00011	.00000984
338	28000	.000225	.00000984
338	32000	.000349	.00000984
338	36000	.000412	.00000984
338	40000	.000445	.00000984
