Measured thermophysical data. Measurement and correlation of the solubilities of tetra(5,5-dimethyl-1,3-dioxaphosphorinanyl-2-oxy) neopentane in different pure solvents
Source: Fluid Phase Equilib., 2014, 10.1016/j.fluid.2014.01.043
Compound 1: 1,3,2-dioxaphosphorinane,2,2'-[[2,2-bis[[(5,5-dimethyl-2-oxido-1,3,2-dioxaphosphorinan-2-yl)oxy]methyl]-1,3-propanediyl]bis(oxy)]bis[5,5-dimethyl-,2,2'-dioxide, C25H48O16P4
Compound 2: acetonitrile, C2H3N, purity 99%
Compound 3: acetone, C3H6O, purity 99%
Compound 4: methanol, CH4O, purity 99%
Compound 5: ethanol, C2H6O, purity 99%
Compound 6: ethyl acetate, C4H8O2, purity 99%
Compound 7: methyl acetate, C3H6O2, purity 99%
Compound 8: 2-butanone, C4H8O, purity 99%
Compound 9: phosphorus oxychloride, Cl3OP, purity 99%
Compound 10: neopentyl glycol, C5H12O2, purity 96%
Compound 11: pentaerythritol, C5H12O4, purity 96%
Compound 12: triethylamine, C6H15N, purity 99%
Compound 13: water, H2O

System: 1,3,2-dioxaphosphorinane,2,2'-[[2,2-bis[[(5,5-dimethyl-2-oxido-1,3,2-dioxaphosphorinan-2-yl)oxy]methyl]-1,3-propanediyl]bis(oxy)]bis[5,5-dimethyl-,2,2'-dioxide; phases: Crystal, Liquid, Air at 1 atmosphere
Property: Normal melting temperature, K (Crystal); method: DSC/DTA
Normal melting temperature, K	uncertainty
466.09	.26

System: 1,3,2-dioxaphosphorinane,2,2'-[[2,2-bis[[(5,5-dimethyl-2-oxido-1,3,2-dioxaphosphorinan-2-yl)oxy]methyl]-1,3-propanediyl]bis(oxy)]bis[5,5-dimethyl-,2,2'-dioxide; phases: Crystal, Liquid, Air at 1 atmosphere
Property: Molar enthalpy of transition or fusion, kJ/mol (Crystal); method: DSC/DTA
Molar enthalpy of transition or fusion, kJ/mol	uncertainty
48.4	.1694

System: acetonitrile + 1,3,2-dioxaphosphorinane,2,2'-[[2,2-bis[[(5,5-dimethyl-2-oxido-1,3,2-dioxaphosphorinan-2-yl)oxy]methyl]-1,3-propanediyl]bis(oxy)]bis[5,5-dimethyl-,2,2'-dioxide; phases: Liquid, Crystal
Fixed: Pressure, kPa = 101
Property: Mole fraction of 1,3,2-dioxaphosphorinane,2,2'-[[2,2-bis[[(5,5-dimethyl-2-oxido-1,3,2-dioxaphosphorinan-2-yl)oxy]methyl]-1,3-propanediyl]bis(oxy)]bis[5,5-dimethyl-,2,2'-dioxide (Liquid); method: mass of residual solid after drying
Temperature, K	Mole fraction of 1,3,2-dioxaphosphorinane,2,2'-[[2,2-bis[[(5,5-dimethyl-2-oxido-1,3,2-dioxaphosphorinan-2-yl)oxy]methyl]-1,3-propanediyl]bis(oxy)]bis[5,5-dimethyl-,2,2'-dioxide	uncertainty
293.42	.0103	.0002
298.31	.0134	.0002
303.33	.017	.0002
308.65	.0251	.0002
312.85	.0293	.0002
318.09	.0372	.0002
323.25	.0463	.0002
328.13	.0611	.0002
333.45	.0748	.0002

System: acetone + 1,3,2-dioxaphosphorinane,2,2'-[[2,2-bis[[(5,5-dimethyl-2-oxido-1,3,2-dioxaphosphorinan-2-yl)oxy]methyl]-1,3-propanediyl]bis(oxy)]bis[5,5-dimethyl-,2,2'-dioxide; phases: Liquid, Crystal
Fixed: Pressure, kPa = 101
Property: Mole fraction of 1,3,2-dioxaphosphorinane,2,2'-[[2,2-bis[[(5,5-dimethyl-2-oxido-1,3,2-dioxaphosphorinan-2-yl)oxy]methyl]-1,3-propanediyl]bis(oxy)]bis[5,5-dimethyl-,2,2'-dioxide (Liquid); method: mass of residual solid after drying
Temperature, K	Mole fraction of 1,3,2-dioxaphosphorinane,2,2'-[[2,2-bis[[(5,5-dimethyl-2-oxido-1,3,2-dioxaphosphorinan-2-yl)oxy]methyl]-1,3-propanediyl]bis(oxy)]bis[5,5-dimethyl-,2,2'-dioxide	uncertainty
293.04	.0218	.0002
298.25	.0258	.0002
302.95	.0311	.0002
308.13	.0347	.0002
313.45	.041	.0002
317.94	.0477	.0002
323.05	.056	.0002

System: methanol + 1,3,2-dioxaphosphorinane,2,2'-[[2,2-bis[[(5,5-dimethyl-2-oxido-1,3,2-dioxaphosphorinan-2-yl)oxy]methyl]-1,3-propanediyl]bis(oxy)]bis[5,5-dimethyl-,2,2'-dioxide; phases: Liquid, Crystal
Fixed: Pressure, kPa = 101
Property: Mole fraction of 1,3,2-dioxaphosphorinane,2,2'-[[2,2-bis[[(5,5-dimethyl-2-oxido-1,3,2-dioxaphosphorinan-2-yl)oxy]methyl]-1,3-propanediyl]bis(oxy)]bis[5,5-dimethyl-,2,2'-dioxide (Liquid); method: mass of residual solid after drying
Temperature, K	Mole fraction of 1,3,2-dioxaphosphorinane,2,2'-[[2,2-bis[[(5,5-dimethyl-2-oxido-1,3,2-dioxaphosphorinan-2-yl)oxy]methyl]-1,3-propanediyl]bis(oxy)]bis[5,5-dimethyl-,2,2'-dioxide	uncertainty
293.35	.0226	.0002
298.12	.0243	.0002
305.65	.027	.0002
307.87	.0282	.0002
313.22	.0333	.0002
317.96	.0351	.0002
323.07	.038	.0002

System: ethanol + 1,3,2-dioxaphosphorinane,2,2'-[[2,2-bis[[(5,5-dimethyl-2-oxido-1,3,2-dioxaphosphorinan-2-yl)oxy]methyl]-1,3-propanediyl]bis(oxy)]bis[5,5-dimethyl-,2,2'-dioxide; phases: Liquid, Crystal
Fixed: Pressure, kPa = 101
Property: Mole fraction of 1,3,2-dioxaphosphorinane,2,2'-[[2,2-bis[[(5,5-dimethyl-2-oxido-1,3,2-dioxaphosphorinan-2-yl)oxy]methyl]-1,3-propanediyl]bis(oxy)]bis[5,5-dimethyl-,2,2'-dioxide (Liquid); method: mass of residual solid after drying
Temperature, K	Mole fraction of 1,3,2-dioxaphosphorinane,2,2'-[[2,2-bis[[(5,5-dimethyl-2-oxido-1,3,2-dioxaphosphorinan-2-yl)oxy]methyl]-1,3-propanediyl]bis(oxy)]bis[5,5-dimethyl-,2,2'-dioxide	uncertainty
293.53	.0183	.0002
298.21	.022	.0002
303.67	.0236	.0002
307.84	.0264	.0002
313.06	.0289	.0002
318.44	.0346	.0002
323.32	.0398	.0002
327.88	.0439	.0002
333.13	.0475	.0002

System: ethyl acetate + 1,3,2-dioxaphosphorinane,2,2'-[[2,2-bis[[(5,5-dimethyl-2-oxido-1,3,2-dioxaphosphorinan-2-yl)oxy]methyl]-1,3-propanediyl]bis(oxy)]bis[5,5-dimethyl-,2,2'-dioxide; phases: Liquid, Crystal
Fixed: Pressure, kPa = 101
Property: Mole fraction of 1,3,2-dioxaphosphorinane,2,2'-[[2,2-bis[[(5,5-dimethyl-2-oxido-1,3,2-dioxaphosphorinan-2-yl)oxy]methyl]-1,3-propanediyl]bis(oxy)]bis[5,5-dimethyl-,2,2'-dioxide (Liquid); method: mass of residual solid after drying
Temperature, K	Mole fraction of 1,3,2-dioxaphosphorinane,2,2'-[[2,2-bis[[(5,5-dimethyl-2-oxido-1,3,2-dioxaphosphorinan-2-yl)oxy]methyl]-1,3-propanediyl]bis(oxy)]bis[5,5-dimethyl-,2,2'-dioxide	uncertainty
293.34	.0387	.0002
298.27	.0459	.0002
303.65	.049	.0002
308.08	.0527	.0002
312.89	.0552	.0002
318.26	.065	.0002
323.75	.0735	.0002
328.22	.0791	.0002
332.85	.0867	.0002

System: methyl acetate + 1,3,2-dioxaphosphorinane,2,2'-[[2,2-bis[[(5,5-dimethyl-2-oxido-1,3,2-dioxaphosphorinan-2-yl)oxy]methyl]-1,3-propanediyl]bis(oxy)]bis[5,5-dimethyl-,2,2'-dioxide; phases: Liquid, Crystal
Fixed: Pressure, kPa = 101
Property: Mole fraction of 1,3,2-dioxaphosphorinane,2,2'-[[2,2-bis[[(5,5-dimethyl-2-oxido-1,3,2-dioxaphosphorinan-2-yl)oxy]methyl]-1,3-propanediyl]bis(oxy)]bis[5,5-dimethyl-,2,2'-dioxide (Liquid); method: mass of residual solid after drying
Temperature, K	Mole fraction of 1,3,2-dioxaphosphorinane,2,2'-[[2,2-bis[[(5,5-dimethyl-2-oxido-1,3,2-dioxaphosphorinan-2-yl)oxy]methyl]-1,3-propanediyl]bis(oxy)]bis[5,5-dimethyl-,2,2'-dioxide	uncertainty
293.67	.0179	.0002
298.32	.0218	.0002
303.85	.0286	.0002
308.21	.0324	.0002
312.78	.0368	.0002
318.05	.0485	.0002
323.24	.0622	.0002

System: 2-butanone + 1,3,2-dioxaphosphorinane,2,2'-[[2,2-bis[[(5,5-dimethyl-2-oxido-1,3,2-dioxaphosphorinan-2-yl)oxy]methyl]-1,3-propanediyl]bis(oxy)]bis[5,5-dimethyl-,2,2'-dioxide; phases: Liquid, Crystal
Fixed: Pressure, kPa = 101
Property: Mole fraction of 1,3,2-dioxaphosphorinane,2,2'-[[2,2-bis[[(5,5-dimethyl-2-oxido-1,3,2-dioxaphosphorinan-2-yl)oxy]methyl]-1,3-propanediyl]bis(oxy)]bis[5,5-dimethyl-,2,2'-dioxide (Liquid); method: mass of residual solid after drying
Temperature, K	Mole fraction of 1,3,2-dioxaphosphorinane,2,2'-[[2,2-bis[[(5,5-dimethyl-2-oxido-1,3,2-dioxaphosphorinan-2-yl)oxy]methyl]-1,3-propanediyl]bis(oxy)]bis[5,5-dimethyl-,2,2'-dioxide	uncertainty
293.55	.0217	.0002
298.23	.0243	.0002
302.87	.0258	.0002
308.32	.0294	.0002
312.93	.0312	.0002
317.85	.0363	.0002
323.07	.0443	.0002
328.34	.0459	.0002
333.13	.0492	.0002
