Measured thermophysical data. Ternary liquid liquid equilibria for (water + terpene + 1-propanol or  1-butanol) systems at the temperature 298.15K
Source: Fluid Phase Equilib., 2008
Compound 1: (1S)-(-)-.alpha.-pinene, C10H16, purity 99%
Compound 2: (1S)-(-)-.beta.-pinene, C10H16, purity 99%
Compound 3: (R)-(+)-limonene, C10H16, purity 99%
Compound 4: 1-propanol, C3H8O, purity 99%
Compound 5: 1-butanol, C4H10O, purity 99%
Compound 6: water, H2O, purity 99.9%

System: 1-propanol + water + (1S)-(-)-.alpha.-pinene; phases: Liquid mixture 1, Liquid mixture 2
Fixed: Pressure, kPa = 101.325
Fixed: Temperature, K = 298.15
Property: Mole fraction of 1-propanol (Liquid mixture 1); method: Chromatography
Property: Mole fraction of 1-propanol (Liquid mixture 2); method: Chromatography
Property: Mole fraction of water (Liquid mixture 2); method: Chromatography
Mole fraction of water	Mole fraction of 1-propanol	uncertainty	Mole fraction of 1-propanol	uncertainty	Mole fraction of water	uncertainty
.9526	.0474	.001	.0371	.001	.0068	.001
.949	.051	.001	.0442	.001	.0073	.001
.937	.063	.001	.0853	.001	.0164	.001
.9155	.0844	.001	.1411	.001	.0238	.001
.9032	.0964	.001	.1596	.001	.0271	.001
.825	.1706	.001	.1963	.001	.0475	.001
.7494	.2372	.001	.2133	.001	.0537	.001
.6862	.2931	.001	.2406	.001	.0588	.001
.5828	.3689	.001	.2621	.001	.077	.001
.5287	.4048	.001	.2745	.001	.092	.001
.4766	.4284	.001	.3	.001	.11	.001
.3944	.4587	.001	.3461	.001	.1385	.001

System: 1-propanol + water + (1S)-(-)-.beta.-pinene; phases: Liquid mixture 1, Liquid mixture 2
Fixed: Pressure, kPa = 101.325
Fixed: Temperature, K = 298.15
Property: Mole fraction of 1-propanol (Liquid mixture 1); method: Chromatography
Property: Mole fraction of 1-propanol (Liquid mixture 2); method: Chromatography
Property: Mole fraction of water (Liquid mixture 2); method: Chromatography
Mole fraction of water	Mole fraction of 1-propanol	uncertainty	Mole fraction of 1-propanol	uncertainty	Mole fraction of water	uncertainty
.9718	.0282	.001	.0201	.001	.0064	.001
.9488	.0512	.001	.0668	.001	.0094	.001
.9467	.0533	.001	.0708	.001	.0113	.001
.9337	.0663	.001	.1215	.001	.0209	.001
.9128	.087	.001	.1928	.001	.0425	.001
.8818	.1168	.001	.234	.001	.0554	.001
.8617	.136	.001	.255	.001	.0725	.001
.8346	.1611	.001	.2713	.001	.0816	.001
.768	.2197	.001	.2986	.001	.0929	.001
.6697	.2998	.001	.3143	.001	.112	.001
.5812	.3629	.001	.3282	.001	.12	.001
.4997	.4122	.001	.3566	.001	.1524	.001
.4431	.4341	.001	.3751	.001	.175	.001

System: 1-propanol + (R)-(+)-limonene + water; phases: Liquid mixture 1, Liquid mixture 2
Fixed: Pressure, kPa = 101.325
Fixed: Temperature, K = 298.15
Property: Mole fraction of 1-propanol (Liquid mixture 1); method: Chromatography
Property: Mole fraction of 1-propanol (Liquid mixture 2); method: Chromatography
Property: Mole fraction of water (Liquid mixture 2); method: Chromatography
Mole fraction of water	Mole fraction of 1-propanol	uncertainty	Mole fraction of 1-propanol	uncertainty	Mole fraction of water	uncertainty
.9629	.0371	.001	.0378	.001	.0093	.001
.9381	.0619	.001	.11	.001	.0189	.001
.9189	.081	.001	.1666	.001	.0346	.001
.9082	.0915	.001	.1783	.001	.0412	.001
.8921	.1073	.001	.2025	.001	.0512	.001
.8477	.1475	.001	.2235	.001	.061	.001
.7799	.212	.001	.246	.001	.066	.001
.6742	.3016	.001	.2741	.001	.0837	.001
.5932	.3636	.001	.2872	.001	.0935	.001
.4843	.4318	.001	.3281	.001	.1213	.001
.4418	.4507	.001	.3475	.001	.1274	.001
.3514	.4641	.001	.3988	.001	.1903	.001

System: 1-butanol + water + (1S)-(-)-.alpha.-pinene; phases: Liquid mixture 1, Liquid mixture 2
Fixed: Pressure, kPa = 101.325
Fixed: Temperature, K = 298.15
Property: Mole fraction of 1-butanol (Liquid mixture 1); method: Chromatography
Property: Mole fraction of water (Liquid mixture 2); method: Chromatography
Property: Mole fraction of 1-butanol (Liquid mixture 2); method: Chromatography
Mole fraction of water	Mole fraction of 1-butanol	uncertainty	Mole fraction of water	uncertainty	Mole fraction of 1-butanol	uncertainty
.9895	.0105	.001	.0094	.001	.0676	.001
.9876	.0124	.001	.021	.001	.1267	.001
.9872	.0128	.001	.0378	.001	.1895	.001
.9859	.0141	.001	.0737	.001	.2977	.001
.9852	.0148	.001	.1049	.001	.3553	.001
.9851	.0149	.001	.1308	.001	.4086	.001
.9848	.0152	.001	.1603	.001	.447	.001
.9846	.0154	.001	.2021	.001	.4955	.001
.984	.016	.001	.2878	.001	.551	.001
.9833	.0167	.001	.3646	.001	.5514	.001
.9826	.0174	.001	.4174	.001	.5385	.001

System: 1-butanol + water + (1S)-(-)-.beta.-pinene; phases: Liquid mixture 1, Liquid mixture 2
Fixed: Pressure, kPa = 101.325
Fixed: Temperature, K = 298.15
Property: Mole fraction of 1-butanol (Liquid mixture 1); method: Chromatography
Property: Mole fraction of water (Liquid mixture 2); method: Chromatography
Property: Mole fraction of 1-butanol (Liquid mixture 2); method: Chromatography
Mole fraction of water	Mole fraction of 1-butanol	uncertainty	Mole fraction of water	uncertainty	Mole fraction of 1-butanol	uncertainty
.9904	.0096	.001	.0086	.001	.0521	.001
.9879	.0121	.001	.0326	.001	.1595	.001
.9866	.0134	.001	.0615	.001	.2719	.001
.9864	.0136	.001	.0824	.001	.3204	.001
.9862	.0138	.001	.0988	.001	.3596	.001
.9858	.0142	.001	.134	.001	.4192	.001
.9853	.0147	.001	.1702	.001	.4653	.001
.9843	.0157	.001	.2569	.001	.5347	.001
.9844	.0156	.001	.3008	.001	.5541	.001
.9835	.0165	.001	.3836	.001	.5472	.001

System: 1-butanol + (R)-(+)-limonene + water; phases: Liquid mixture 1, Liquid mixture 2
Fixed: Pressure, kPa = 101.325
Fixed: Temperature, K = 298.15
Property: Mole fraction of 1-butanol (Liquid mixture 1); method: Chromatography
Property: Mole fraction of water (Liquid mixture 2); method: Chromatography
Property: Mole fraction of 1-butanol (Liquid mixture 2); method: Chromatography
Mole fraction of water	Mole fraction of 1-butanol	uncertainty	Mole fraction of water	uncertainty	Mole fraction of 1-butanol	uncertainty
.9902	.0098	.001	.0102	.001	.0675	.001
.9881	.0119	.001	.0305	.001	.1549	.001
.9872	.0128	.001	.05	.001	.221	.001
.9864	.0136	.001	.0797	.001	.3021	.001
.9862	.0138	.001	.1117	.001	.3697	.001
.9858	.0142	.001	.1281	.001	.3942	.001
.9849	.0151	.001	.1546	.001	.4364	.001
.9845	.0155	.001	.2064	.001	.4919	.001
.9842	.0158	.001	.2638	.001	.5331	.001
.9841	.0159	.001	.3179	.001	.5481	.001
.9829	.0171	.001	.3797	.001	.5465	.001
