Measured thermophysical data. An experimental study of PVTx properties in the gas phase for binary mixtures of HFO-1234yf and HFC-134a
Source: Fluid Phase Equilib., 2015, 10.1016/j.fluid.2014.10.047
Compound 1: HFO-1234yf, C3H2F4, purity 99.8%
Compound 2: 1,1,1,2-tetrafluoroethane, C2H2F4, purity 99.8%

System: HFO-1234yf + 1,1,1,2-tetrafluoroethane; phases: Gas
Property: Amount density, mol/m3 (Gas); method: Other
Pressure, kPa	Temperature, K	Mole fraction of 1,1,1,2-tetrafluoroethane	Amount density, mol/m3	uncertainty
962.2	318.22	.2445	448	.672
984.7	323.24	.2445	448	.672
1009.1	328.22	.2445	448	.672
1030.8	333.21	.2445	448	.672
1056.3	338.19	.2445	448	.672
1077.4	343.17	.2445	448	.672
1101.3	348.17	.2445	448	.672
1125	353.13	.2445	448	.672
1146.2	358.25	.2445	447	.6705
1169.8	363.1	.2445	447	.6705
1192.4	368.21	.2445	447	.6705
1214.8	373.22	.2445	447	.6705
1234.4	378.12	.2445	447	.6705
1258.1	383.17	.2445	447	.6705
1278.3	388.2	.2445	447	.6705
1301.3	393.12	.2445	447	.6705
1323.1	398.23	.2445	447	.6705
1344.9	403.22	.2445	446	.669
567.5	298.58	.8641	259	.3885
579.4	303.46	.8641	259	.3885
606.2	313.45	.8641	259	.3885
619.1	318.44	.8641	259	.3885
630.8	323.43	.8641	259	.3885
644	328.44	.8641	259	.3885
656.4	333.1	.8641	259	.3885
668.7	338.26	.8641	259	.3885
681.8	343.17	.8641	259	.3885
693.4	348.25	.8641	259	.3885
706.4	353.2	.8641	259	.3885
718.8	358.18	.8641	259	.3885
731.3	363.25	.8641	259	.3885
742	368.1	.8641	259	.3885
753.2	373.21	.8641	259	.3885
766.3	378.2	.8641	258	.387
777.2	383.16	.8641	258	.387
788.1	388.14	.8641	258	.387
802.4	393.14	.8641	258	.387
813.4	398.18	.8641	258	.387
824.2	403.14	.8641	258	.387
898	313.14	.543	422	.633
922.5	318.21	.543	422	.633
943.6	323.24	.543	422	.633
966.8	328.21	.543	422	.633
989	333.19	.543	422	.633
1010.9	338.2	.543	422	.633
1030.4	343.14	.543	422	.633
1053.4	348.26	.543	422	.633
1073	353.25	.543	421	.6315
1095.3	358.24	.543	421	.6315
1116.5	363.22	.543	421	.6315
1137	368.19	.543	421	.6315
1156.2	373.19	.543	421	.6315
1177.6	378.17	.543	421	.6315
1198.3	383.28	.543	421	.6315
1219	388.29	.543	421	.6315
1237.5	393.25	.543	421	.6315
1258.4	398.1	.543	420	.63
1277.4	403.21	.543	420	.63
1355.8	328.47	.2565	664	.996
1394.7	333.45	.2565	664	.996
1434.2	338.43	.2565	663	.9945
1471.4	342.98	.2565	663	.9945
1508.5	348.07	.2565	663	.9945
1545.5	353.14	.2565	663	.9945
1684.1	373.09	.2565	662	.993
1753.6	383.01	.2565	662	.993
1827.1	393.26	.2565	662	.993
1893.1	403.07	.2565	661	.9915
754.2	308.15	.6236	352	.528
792.3	318.12	.6236	352	.528
828.8	328.19	.6236	352	.528
846.1	333.18	.6236	352	.528
882.7	343.15	.6236	351	.5265
916.6	353.12	.6236	351	.5265
950.4	363.21	.6236	351	.5265
981.6	373.18	.6236	351	.5265
1017.9	383.13	.6236	351	.5265
2480.1	358.25	.822	1258	1.887
2563.9	363.24	.822	1258	1.887
2641.3	368.22	.822	1257	1.8855
2718.6	373.24	.822	1257	1.8855
2794	378.19	.822	1257	1.8855
2872.6	383.15	.822	1256	1.884
2945.6	388.14	.822	1256	1.884
3027.2	393.26	.822	1256	1.884
3100	398.25	.822	1255	1.8825
3171.2	403.24	.822	1255	1.8825
2489.6	373.1	.038	1151	1.7265
2562.7	378.21	.038	1151	1.7265
2630.2	383.16	.038	1150	1.725
2703.2	388.29	.038	1150	1.725
2770.4	393.26	.038	1150	1.725
2837.3	398.24	.038	1149	1.7235
2905.3	403.23	.038	1149	1.7235
