Measured thermophysical data. Salting-out effect of alkali metal chlorides (lithium, sodium, and potassium) on 2-cyanoguanidine aqueous solution: A solid-liquid equilibrium study
Source: Fluid Phase Equilib., 2016, 10.1016/j.fluid.2015.09.005
Compound 1: cyanoguanidine, C2H4N4
Compound 2: lithium chloride, ClLi, purity 97%
Compound 3: sodium chloride, ClNa, purity 99.5%
Compound 4: potassium chloride, ClK, purity 99.5%
Compound 5: water, H2O, purity 99%

System: cyanoguanidine + sodium chloride + water; phases: Liquid, Crystal
Fixed: Pressure, kPa = 88.4
Property: Mole fraction of cyanoguanidine (Liquid); method: Chromatography
Temperature, K	Solvent: Mass fraction of sodium chloride	Mole fraction of cyanoguanidine	uncertainty
298.15	.01	.0087	.000261
298.15	.05	.00819	.0002457
298.15	.1	.00782	.0002346
298.15	.15	.00773	.0002319
298.15	.2	.00726	.0002178
298.15	.25	.00623	.0001869
308.15	.01	.01383	.0004149
308.15	.05	.01329	.0003987
308.15	.1	.01244	.0003732
308.15	.15	.01153	.0003459
308.15	.2	.01077	.0003231
308.15	.25	.00982	.0002946
318.15	.01	.02071	.0006213
318.15	.05	.02015	.0006045
318.15	.1	.01931	.0005793
318.15	.15	.01762	.0005286
318.15	.2	.01556	.0004668
318.15	.25	.01459	.0004377
328.15	.01	.03131	.0009393
328.15	.05	.02972	.0008916
328.15	.1	.02787	.0008361
328.15	.15	.02581	.0007743
328.15	.2	.02299	.0006897
328.15	.25	.02045	.0006135

System: cyanoguanidine + potassium chloride + water; phases: Liquid, Crystal
Fixed: Pressure, kPa = 88.4
Property: Mole fraction of cyanoguanidine (Liquid); method: Chromatography
Temperature, K	Solvent: Mass fraction of potassium chloride	Mole fraction of cyanoguanidine	uncertainty
298.15	.01	.00873	.0002619
298.15	.05	.00868	.0002604
298.15	.1	.00848	.0002544
298.15	.15	.00832	.0002496
298.15	.2	.00761	.0002283
298.15	.25	.0071	.000213
308.15	.01	.01397	.0004191
308.15	.05	.01348	.0004044
308.15	.1	.01335	.0004005
308.15	.15	.01319	.0003957
308.15	.2	.0124	.000372
308.15	.25	.01171	.0003513
318.15	.01	.021	.00063
318.15	.05	.02098	.0006294
318.15	.1	.02002	.0006006
318.15	.15	.01943	.0005829
318.15	.2	.01859	.0005577
318.15	.25	.01789	.0005367
328.15	.01	.03133	.0009399
328.15	.05	.03059	.0009177
328.15	.1	.02966	.0008898
328.15	.15	.02883	.0008649
328.15	.2	.0273	.000819
328.15	.25	.02633	.0007899

System: cyanoguanidine + lithium chloride + water; phases: Liquid, Crystal
Fixed: Pressure, kPa = 88.4
Property: Mole fraction of cyanoguanidine (Liquid); method: Chromatography
Temperature, K	Solvent: Mass fraction of lithium chloride	Mole fraction of cyanoguanidine	uncertainty
298.15	.01	.00839	.0002517
298.15	.05	.00807	.0002421
298.15	.1	.00734	.0002202
298.15	.15	.00652	.0001956
298.15	.2	.00603	.0001809
298.15	.25	.00498	.0001494
308.15	.01	.01318	.0003954
308.15	.05	.01251	.0003753
308.15	.1	.0112	.000336
308.15	.15	.01018	.0003054
308.15	.2	.00929	.0002787
308.15	.25	.008	.00024
318.15	.01	.02031	.0006093
318.15	.05	.01887	.0005661
318.15	.1	.01683	.0005049
318.15	.15	.01512	.0004536
318.15	.2	.01446	.0004338
318.15	.25	.01312	.0003936
328.15	.01	.03001	.0009003
328.15	.05	.02842	.0008526
328.15	.1	.02491	.0007473
328.15	.15	.02278	.0006834
328.15	.2	.02136	.0006408
328.15	.25	.02024	.0006072
