Measured thermophysical data. Eutectic mixtures of pyrrolidinium-based ionic liquids
Source: Fluid Phase Equilib., 2016, 10.1016/j.fluid.2015.08.007
Compound 1: 1-butyl-1-methylpyrrolidinium chloride, C9H20ClN, purity 98%
Compound 2: 1-butyl-1-methylpyrrolidinium bromide, C9H20BrN, purity 98%
Compound 3: 1-butyl-1-methylpyrrolidinium tetrafluoroborate, C9H20BF4N, purity 98%
Compound 4: 1-ethyl-1-methylpyrrolidinium bis(trifluoromethylsulfonyl)imide, C9H16F6N2O4S2, purity 98%
Compound 5: 1-ethyl-1-methylpyrrolidinium tetrafluoroborate, C7H16BF4N, purity 98%

System: 1-butyl-1-methylpyrrolidinium chloride; phases: Crystal, Liquid, Air at 1 atmosphere
Property: Normal melting temperature, K (Crystal); method: DSC/DTA
Normal melting temperature, K	uncertainty
474	1

System: 1-butyl-1-methylpyrrolidinium chloride; phases: Crystal, Liquid, Air at 1 atmosphere
Property: Normal melting temperature, K (Crystal); method: DSC/DTA
Normal melting temperature, K	uncertainty
477	1

System: 1-butyl-1-methylpyrrolidinium bromide; phases: Crystal 1, Liquid, Air at 1 atmosphere
Property: Normal melting temperature, K (Crystal 1); method: DSC/DTA
Normal melting temperature, K	uncertainty
477	1

System: 1-butyl-1-methylpyrrolidinium bromide; phases: Crystal, Liquid, Air at 1 atmosphere
Property: Normal melting temperature, K (Crystal); method: DSC/DTA
Normal melting temperature, K	uncertainty
477	1

System: 1-butyl-1-methylpyrrolidinium tetrafluoroborate; phases: Crystal, Liquid, Air at 1 atmosphere
Property: Normal melting temperature, K (Crystal); method: DSC/DTA
Normal melting temperature, K	uncertainty
425	1

System: 1-butyl-1-methylpyrrolidinium tetrafluoroborate; phases: Crystal, Liquid, Air at 1 atmosphere
Property: Normal melting temperature, K (Crystal); method: DSC/DTA
Normal melting temperature, K	uncertainty
424	1

System: 1-ethyl-1-methylpyrrolidinium bis(trifluoromethylsulfonyl)imide; phases: Crystal, Liquid, Air at 1 atmosphere
Property: Normal melting temperature, K (Crystal); method: DSC/DTA
Normal melting temperature, K	uncertainty
364	1

System: 1-ethyl-1-methylpyrrolidinium tetrafluoroborate; phases: Crystal, Liquid, Air at 1 atmosphere
Property: Normal melting temperature, K (Crystal); method: DSC/DTA
Normal melting temperature, K	uncertainty
339	1

System: 1-butyl-1-methylpyrrolidinium bromide + 1-butyl-1-methylpyrrolidinium chloride; phases: Crystal, Crystal, Liquid, Air at 1 atmosphere
Fixed: Pressure, kPa = 101.325
Property: Eutectic temperature, K (Crystal); method: Derived from phase diagram analysis
Eutectic temperature, K	uncertainty
464	1

System: 1-butyl-1-methylpyrrolidinium bromide + 1-butyl-1-methylpyrrolidinium chloride; phases: Crystal, Crystal, Liquid, Air at 1 atmosphere
Fixed: Pressure, kPa = 101.325
Property: Eutectic composition: mole fraction of 1-butyl-1-methylpyrrolidinium bromide (Crystal); method: Derived from phase diagram analysis
Eutectic composition: mole fraction of 1-butyl-1-methylpyrrolidinium bromide	uncertainty
.353	.005

System: 1-butyl-1-methylpyrrolidinium bromide + 1-butyl-1-methylpyrrolidinium chloride; phases: Liquid, Crystal
Fixed: Pressure, kPa = 101
Property: Solid-liquid equilibrium temperature, K (Liquid); method: DSC/DTA
Mole fraction of 1-butyl-1-methylpyrrolidinium bromide	Solid-liquid equilibrium temperature, K	uncertainty
0	474	1
.1	473	1
.2	469	1
.3	467	1

System: 1-butyl-1-methylpyrrolidinium bromide + 1-butyl-1-methylpyrrolidinium chloride; phases: Liquid, Crystal 1
Fixed: Pressure, kPa = 101
Property: Solid-liquid equilibrium temperature, K (Liquid); method: DSC/DTA
Mole fraction of 1-butyl-1-methylpyrrolidinium bromide	Solid-liquid equilibrium temperature, K	uncertainty
.4	468	1
.5	468	1
.6	471	1
.7	472	1
.8	474	1
.9	478	1
1	477	1

System: 1-butyl-1-methylpyrrolidinium bromide + 1-butyl-1-methylpyrrolidinium tetrafluoroborate; phases: Crystal, Crystal, Liquid, Air at 1 atmosphere
Fixed: Pressure, kPa = 101.325
Property: Eutectic temperature, K (Crystal); method: Derived from phase diagram analysis
Eutectic temperature, K	uncertainty
394	1

System: 1-butyl-1-methylpyrrolidinium bromide + 1-butyl-1-methylpyrrolidinium tetrafluoroborate; phases: Crystal, Crystal, Liquid, Air at 1 atmosphere
Fixed: Pressure, kPa = 101.325
Property: Eutectic composition: mole fraction of 1-butyl-1-methylpyrrolidinium tetrafluoroborate (Crystal); method: Derived from phase diagram analysis
Eutectic composition: mole fraction of 1-butyl-1-methylpyrrolidinium tetrafluoroborate	uncertainty
.556	.005

System: 1-butyl-1-methylpyrrolidinium bromide + 1-butyl-1-methylpyrrolidinium tetrafluoroborate; phases: Liquid, Crystal
Fixed: Pressure, kPa = 101
Property: Solid-liquid equilibrium temperature, K (Liquid); method: DSC/DTA
Mole fraction of 1-butyl-1-methylpyrrolidinium tetrafluoroborate	Solid-liquid equilibrium temperature, K	uncertainty
0	477	1
.1026	454	1
.1954	445	1
.3044	434	1
.409	424	1
.5046	403	1

System: 1-butyl-1-methylpyrrolidinium bromide + 1-butyl-1-methylpyrrolidinium tetrafluoroborate; phases: Liquid, Crystal
Fixed: Pressure, kPa = 101
Property: Solid-liquid equilibrium temperature, K (Liquid); method: DSC/DTA
Mole fraction of 1-butyl-1-methylpyrrolidinium tetrafluoroborate	Solid-liquid equilibrium temperature, K	uncertainty
.6187	405	1
.7194	406	1
.8001	410	1
.8998	415	1
1	425	1

System: 1-butyl-1-methylpyrrolidinium tetrafluoroborate + 1-butyl-1-methylpyrrolidinium chloride; phases: Crystal, Crystal, Liquid, Air at 1 atmosphere
Fixed: Pressure, kPa = 101.325
Property: Eutectic temperature, K (Crystal); method: Derived from phase diagram analysis
Eutectic temperature, K	uncertainty
366	1

System: 1-butyl-1-methylpyrrolidinium tetrafluoroborate + 1-butyl-1-methylpyrrolidinium chloride; phases: Crystal, Crystal, Liquid, Air at 1 atmosphere
Fixed: Pressure, kPa = 101.325
Property: Eutectic composition: mole fraction of 1-butyl-1-methylpyrrolidinium tetrafluoroborate (Crystal); method: Derived from phase diagram analysis
Eutectic composition: mole fraction of 1-butyl-1-methylpyrrolidinium tetrafluoroborate	uncertainty
.447	.005

System: 1-butyl-1-methylpyrrolidinium tetrafluoroborate + 1-butyl-1-methylpyrrolidinium chloride; phases: Liquid, Crystal
Fixed: Pressure, kPa = 101
Property: Solid-liquid equilibrium temperature, K (Liquid); method: DSC/DTA
Mole fraction of 1-butyl-1-methylpyrrolidinium tetrafluoroborate	Solid-liquid equilibrium temperature, K	uncertainty
.4917	370	1
.5948	383	1
.7064	396	1
.7754	402	1
.9218	410	1
1	424	1

System: 1-butyl-1-methylpyrrolidinium tetrafluoroborate + 1-butyl-1-methylpyrrolidinium chloride; phases: Liquid, Crystal
Fixed: Pressure, kPa = 101
Property: Solid-liquid equilibrium temperature, K (Liquid); method: DSC/DTA
Mole fraction of 1-butyl-1-methylpyrrolidinium tetrafluoroborate	Solid-liquid equilibrium temperature, K	uncertainty
0	477	1
.1055	454	1
.2192	438	1
.3057	412	1
.4105	382	1

System: 1-ethyl-1-methylpyrrolidinium tetrafluoroborate + 1-ethyl-1-methylpyrrolidinium bis(trifluoromethylsulfonyl)imide; phases: Crystal, Crystal, Liquid, Air at 1 atmosphere
Fixed: Pressure, kPa = 101.325
Property: Eutectic temperature, K (Crystal); method: Derived from phase diagram analysis
Eutectic temperature, K	uncertainty
322	1

System: 1-ethyl-1-methylpyrrolidinium tetrafluoroborate + 1-ethyl-1-methylpyrrolidinium bis(trifluoromethylsulfonyl)imide; phases: Crystal, Crystal, Liquid, Air at 1 atmosphere
Fixed: Pressure, kPa = 101.325
Property: Eutectic composition: mole fraction of 1-ethyl-1-methylpyrrolidinium tetrafluoroborate (Crystal); method: Derived from phase diagram analysis
Eutectic composition: mole fraction of 1-ethyl-1-methylpyrrolidinium tetrafluoroborate	uncertainty
.4	.005

System: 1-ethyl-1-methylpyrrolidinium tetrafluoroborate + 1-ethyl-1-methylpyrrolidinium bis(trifluoromethylsulfonyl)imide; phases: Liquid, Crystal
Fixed: Pressure, kPa = 101
Property: Solid-liquid equilibrium temperature, K (Liquid); method: DSC/DTA
Mole fraction of 1-ethyl-1-methylpyrrolidinium tetrafluoroborate	Solid-liquid equilibrium temperature, K	uncertainty
0	364	1
.1026	351	1
.1954	339	1
.3044	331	1

System: 1-ethyl-1-methylpyrrolidinium tetrafluoroborate + 1-ethyl-1-methylpyrrolidinium bis(trifluoromethylsulfonyl)imide; phases: Liquid, Crystal
Fixed: Pressure, kPa = 101
Property: Solid-liquid equilibrium temperature, K (Liquid); method: DSC/DTA
Mole fraction of 1-ethyl-1-methylpyrrolidinium tetrafluoroborate	Solid-liquid equilibrium temperature, K	uncertainty
.5046	337	1
.6187	337	1
.7194	338	1
.8001	341	1
.8998	343	1
1	339	1

System: 1-ethyl-1-methylpyrrolidinium bis(trifluoromethylsulfonyl)imide + 1-butyl-1-methylpyrrolidinium tetrafluoroborate; phases: Crystal, Crystal, Liquid, Air at 1 atmosphere
Fixed: Pressure, kPa = 101.325
Property: Eutectic temperature, K (Crystal); method: Derived from phase diagram analysis
Eutectic temperature, K	uncertainty
274	1

System: 1-ethyl-1-methylpyrrolidinium bis(trifluoromethylsulfonyl)imide + 1-butyl-1-methylpyrrolidinium tetrafluoroborate; phases: Crystal, Crystal, Liquid, Air at 1 atmosphere
Fixed: Pressure, kPa = 101.325
Property: Eutectic composition: mole fraction of 1-butyl-1-methylpyrrolidinium tetrafluoroborate (Crystal); method: Derived from phase diagram analysis
Eutectic composition: mole fraction of 1-butyl-1-methylpyrrolidinium tetrafluoroborate	uncertainty
.508	.005

System: 1-ethyl-1-methylpyrrolidinium bis(trifluoromethylsulfonyl)imide + 1-butyl-1-methylpyrrolidinium tetrafluoroborate; phases: Liquid, Crystal
Fixed: Pressure, kPa = 101
Property: Solid-liquid equilibrium temperature, K (Liquid); method: DSC/DTA
Mole fraction of 1-butyl-1-methylpyrrolidinium tetrafluoroborate	Solid-liquid equilibrium temperature, K	uncertainty
0	364	1
.0964	350	1
.1906	322	1
.3074	301	1
.3904	285	1

System: 1-ethyl-1-methylpyrrolidinium bis(trifluoromethylsulfonyl)imide + 1-butyl-1-methylpyrrolidinium tetrafluoroborate; phases: Liquid, Crystal
Fixed: Pressure, kPa = 101
Property: Solid-liquid equilibrium temperature, K (Liquid); method: DSC/DTA
Mole fraction of 1-butyl-1-methylpyrrolidinium tetrafluoroborate	Solid-liquid equilibrium temperature, K	uncertainty
.624	331	1
.7111	361	1
.8165	388	1
.9008	404	1
1	425	1
