Measured thermophysical data. Thermophysical and magnetic studies of two paramagnetic liquid salts: [C4mim][FeCl4] and [P6 6 6 14][FeCl4]
Source: Fluid Phase Equilib., 2013, 10.1016/j.fluid.2013.03.001
Compound 1: 1-butyl-3-methyl-1H-imidazolium tetrachloroferrate(III), C8H15Cl4FeN2, purity 99%
Compound 2: trihexyltetradecylphosphonium tetrachloroferrate, C32H68Cl4FeP, purity 99%

System: 1-butyl-3-methyl-1H-imidazolium tetrachloroferrate(III); phases: Liquid
Fixed: Pressure, kPa = 101.325
Property: Mass density, kg/m3 (Liquid); method: Vibrating tube method
Temperature, K	Mass density, kg/m3	uncertainty
293.15	1370	.05
294.15	1369.2	.05
295.15	1368.3	.05
296.15	1367.5	.05
297.15	1366.7	.05
298.15	1365.8	.05
299.15	1365	.05
300.15	1364.2	.05
301.15	1363.3	.05
302.15	1362.5	.05
303.15	1361.7	.05
304.15	1360.9	.05
305.15	1360.1	.05
306.15	1359.2	.05
307.15	1358.4	.05
308.15	1357.6	.05
309.15	1356.8	.05
310.15	1356	.05
311.15	1355.1	.05
312.15	1354.3	.05
313.15	1353.5	.05
314.15	1352.7	.05
315.15	1351.9	.05
316.15	1351.1	.05
317.15	1350.3	.05
318.15	1349.5	.05
319.15	1348.7	.05
320.15	1347.8	.05
321.15	1347	.05
322.15	1346.2	.05
323.15	1345.4	.05
324.15	1344.6	.05
325.15	1343.8	.05
326.15	1343	.05
327.15	1342.2	.05
328.15	1341.4	.05
329.15	1340.6	.05
330.15	1339.8	.05
331.15	1339	.05
332.15	1338.2	.05
333.15	1337.4	.05
334.15	1336.6	.05
335.15	1335.9	.05
336.15	1335.1	.05
337.15	1334.3	.05
338.15	1333.5	.05
339.15	1332.7	.05
340.15	1331.9	.05
341.15	1331.1	.05
342.15	1330.3	.05
343.15	1329.5	.05
344.15	1328.7	.05
345.15	1328	.05
346.15	1327.2	.05
347.15	1326.4	.05
348.15	1325.6	.05
349.15	1324.8	.05
350.15	1324	.05
351.15	1323.3	.05
352.15	1322.5	.05
353.15	1321.7	.05
354.15	1320.9	.05
355.15	1320.1	.05
356.15	1319.4	.05
357.15	1318.6	.05
358.15	1317.8	.05
359.15	1317	.05
360.15	1316.3	.05
361.15	1315.5	.05
362.15	1314.7	.05
363.15	1313.9	.05

System: 1-butyl-3-methyl-1H-imidazolium tetrachloroferrate(III); phases: Liquid
Fixed: Pressure, kPa = 101.325
Property: Viscosity, Pa*s (Liquid); method: Concentric cylinders viscometry
Temperature, K	Viscosity, Pa*s	uncertainty
278.15	.1033	.0005165
283.15	.0795	.0003975
288.15	.0626	.000313
293.15	.0502	.000251
298.15	.041	.000205
303.15	.0339	.0001695
308.15	.0285	.0001425
313.15	.0242	.000121
318.15	.0208	.000104
323.15	.0181	.0000905
328.15	.0158	.000079
333.15	.0139	.0000695
338.15	.0124	.000062
343.15	.0111	.0000555
348.15	.01	.00005
353.15	.009	.000045
358.15	.0082	.000041
363.15	.0075	.0000375
368.15	.0069	.0000345
373.15	.0063	.0000315

System: 1-butyl-3-methyl-1H-imidazolium tetrachloroferrate(III); phases: Liquid
Fixed: Pressure, kPa = 101.325
Property: Molar heat capacity at constant pressure, J/K/mol (Liquid); method: Small sample (50 mg) DSC
Temperature, K	Molar heat capacity at constant pressure, J/K/mol	uncertainty
308.16	436.39	6.54585
313.16	446.09	6.69135
318.16	446.39	6.69585
323.16	447.13	6.70695
328.22	449.63	6.74445
333.22	451.03	6.76545
338.19	452.53	6.78795
343.18	456.2	6.843
348.25	457.4	6.861
353.18	457.95	6.86925
358.25	459.31	6.88965
363.18	460.92	6.9138
368.17	461.57	6.92355
373.21	462.88	6.9432
378.2	463.64	6.9546
383.17	465.82	6.9873
388.2	465.66	6.9849
393.17	466.11	6.99165
398.2	467.83	7.01745
403.2	469.12	7.0368
408.16	469.7	7.0455
413.19	469.42	7.0413
418.19	471.44	7.0716
423.22	470.84	7.0626

System: trihexyltetradecylphosphonium tetrachloroferrate; phases: Liquid
Fixed: Pressure, kPa = 101.325
Property: Mass density, kg/m3 (Liquid); method: Vibrating tube method
Temperature, K	Mass density, kg/m3	uncertainty
293.15	991.94	.05
294.15	991.31	.05
295.15	990.69	.05
296.15	990.06	.05
297.15	989.44	.05
298.15	988.81	.05
299.15	988.19	.05
300.15	987.56	.05
301.15	986.94	.05
302.15	986.31	.05
303.15	985.69	.05
304.15	985.06	.05
305.15	984.44	.05
306.15	983.81	.05
307.15	983.19	.05
308.15	982.57	.05
309.15	981.95	.05
310.15	981.44	.05
311.15	980.81	.05
312.15	980.19	.05
313.15	979.56	.05
314.15	978.94	.05
315.15	978.31	.05
316.15	977.69	.05
317.15	977.06	.05
318.15	976.44	.05
319.15	975.81	.05
320.15	975.19	.05
321.15	974.56	.05
322.15	973.94	.05
323.15	973.31	.05
324.15	972.69	.05
325.15	972.06	.05
326.15	971.44	.05
327.15	970.82	.05
328.15	970.19	.05
329.15	969.57	.05
330.15	968.94	.05
331.15	968.32	.05
332.15	967.7	.05
333.15	967.08	.05
334.15	966.45	.05
335.15	965.83	.05
336.15	965.21	.05
337.15	964.59	.05
338.15	963.97	.05
339.15	963.35	.05
340.15	962.73	.05
341.15	962.11	.05
342.15	961.49	.05
343.15	960.86	.05
344.15	960.24	.05
345.15	959.62	.05
346.15	959.01	.05
347.15	958.39	.05
348.15	957.77	.05
349.15	957.15	.05
350.15	956.53	.05
351.15	955.91	.05
352.15	955.3	.05
353.15	954.68	.05
354.15	954.07	.05
355.15	953.45	.05
356.15	952.83	.05
357.15	952.22	.05
358.15	951.61	.05
359.15	950.99	.05
360.15	950.38	.05
361.15	949.76	.05
362.15	949.15	.05
363.15	948.54	.05

System: trihexyltetradecylphosphonium tetrachloroferrate; phases: Liquid
Fixed: Pressure, kPa = 101.325
Property: Viscosity, Pa*s (Liquid); method: Concentric cylinders viscometry
Temperature, K	Viscosity, Pa*s	uncertainty
283.15	4.145	.020725
288.15	2.789	.013945
293.15	1.92	.0096
298.15	1.349	.006745
303.15	.9689	.0048445
308.15	.7086	.003543
313.15	.5273	.0026365
318.15	.3987	.0019935
323.15	.306	.00153
328.15	.2381	.0011905
333.15	.1877	.0009385
338.15	.1497	.0007485
343.15	.1208	.000604
348.15	.0985	.0004925
353.15	.0811	.0004055
358.15	.0674	.000337
363.15	.0566	.000283
368.15	.0478	.000239
373.15	.0407	.0002035

System: trihexyltetradecylphosphonium tetrachloroferrate; phases: Liquid
Fixed: Pressure, kPa = 101.325
Property: Molar heat capacity at constant pressure, J/K/mol (Liquid); method: Small sample (50 mg) DSC
Temperature, K	Molar heat capacity at constant pressure, J/K/mol	uncertainty
308.16	1341.8	20.127
313.16	1356.7	20.3505
318.16	1370.6	20.559
323.16	1378.7	20.6805
328.22	1388.1	20.8215
333.22	1394.3	20.9145
338.19	1399.5	20.9925
343.18	1411.1	21.1665
348.25	1416.3	21.2445
353.18	1420	21.3
358.25	1427.7	21.4155
363.18	1437.1	21.5565
368.17	1443	21.645
373.21	1451.4	21.771
378.2	1456.2	21.843
383.17	1463.7	21.9555
388.2	1469.1	22.0365
393.17	1471.6	22.074
398.2	1477.9	22.1685
403.2	1480.9	22.2135
408.16	1482.6	22.239
413.19	1482.2	22.233
418.19	1483.6	22.254
423.22	1480.8	22.212
