Measured thermophysical data. Conductometric studies of aqueous ionic liquids, 1-alkyl-3-methylimidazolium  halide, solutions at T = 298.15-328.15 K
Source: Fluid Phase Equilib., 2009, 10.1016/j.fluid.2009.08.011
Compound 1: 1-n-butyl-3-methylimidazolium bromide, C8H15BrN2, purity 99%
Compound 2: 1-pentyl-3-methylimidazolium bromide, C9H17BrN2, purity 99%
Compound 3: 1-hexyl-3-methylimidazolium bromide, C10H19BrN2, purity 99%
Compound 4: 1-butyl-3-methylimidazolium chloride, C8H15ClN2, purity 99%
Compound 5: 1-butyl-3-methylimidazolium iodide, C8H15IN2, purity 99%
Compound 6: water, H2O, purity 99.8%

System: water + 1-butyl-3-methylimidazolium chloride; phases: Liquid
Fixed: Pressure, kPa = 101
Property: Molar conductivity, S*m2/mol (Liquid); method: Conductivity Meter
Temperature, K	Amount concentration (molarity), mol/dm3 of 1-butyl-3-methylimidazolium chloride	Molar conductivity, S*m2/mol	uncertainty
298.15	.0004271	.010861	.000054305
298.15	.0009378	.010812	.00005406
298.15	.0017548	.010678	.00005339
298.15	.0025533	.010597	.000052985
298.15	.002999	.010566	.00005283
298.15	.0038347	.01052	.0000526
298.15	.0044382	.010427	.000052135
298.15	.004986	.010381	.000051905
298.15	.0056081	.010328	.00005164
298.15	.006388	.010268	.00005134
298.15	.0071122	.010229	.000051145
298.15	.0082171	.010125	.000050625
298.15	.0089321	.010052	.00005026
298.15	.009777	.009987	.000049935
298.15	.0104083	.009957	.000049785
298.15	.0111883	.009835	.000049175
298.15	.0121632	.009779	.000048895
298.15	.013036	.009684	.00004842
298.15	.0138902	.009621	.000048105
308.15	.0006735	.011136	.00005568
308.15	.0015078	.011042	.00005521
308.15	.0022409	.010951	.000054755
308.15	.0024316	.010943	.000054715
308.15	.0035878	.010826	.00005413
308.15	.0048751	.010599	.000052995
308.15	.0060074	.01045	.00005225
308.15	.0082185	.010332	.00005166
308.15	.0101316	.010259	.000051295
308.15	.0125929	.010183	.000050915
308.15	.0145716	.010098	.00005049
308.15	.0170806	.010043	.000050215
308.15	.0195778	.010029	.000050145
308.15	.0219855	.009977	.000049885
318.15	.000681	.011934	.00005967
318.15	.0016345	.011676	.00005838
318.15	.0023876	.011348	.00005674
318.15	.0034291	.011129	.000055645
318.15	.0043906	.010911	.000054555
318.15	.0066179	.010679	.000053395
318.15	.0087251	.010473	.000052365
318.15	.0107842	.010328	.00005164
318.15	.0136685	.010131	.000050655
318.15	.0167131	.009967	.000049835
318.15	.0201582	.009811	.000049055
318.15	.0229464	.009704	.00004852
318.15	.0249334	.009617	.000048085
328.15	.0006908	.012494	.00006247
328.15	.0007995	.012408	.00006204
328.15	.0013273	.012341	.000061705
328.15	.0020414	.01211	.00006055
328.15	.0026934	.012022	.00006011
328.15	.0044786	.011504	.00005752
328.15	.0060543	.011268	.00005634
328.15	.0074126	.011077	.000055385
328.15	.0087864	.010895	.000054475
328.15	.0102845	.010781	.000053905
328.15	.012287	.010603	.000053015
328.15	.0150425	.010369	.000051845
328.15	.0174875	.010229	.000051145

System: water + 1-n-butyl-3-methylimidazolium bromide; phases: Liquid
Fixed: Pressure, kPa = 101
Property: Molar conductivity, S*m2/mol (Liquid); method: Conductivity Meter
Temperature, K	Amount concentration (molarity), mol/dm3 of 1-n-butyl-3-methylimidazolium bromide	Molar conductivity, S*m2/mol	uncertainty
298.15	.0004937	.013111	.000065555
298.15	.0008655	.01306	.0000653
298.15	.0016214	.012967	.000064835
298.15	.0027063	.012908	.00006454
298.15	.0037608	.012799	.000063995
298.15	.0058149	.012646	.00006323
298.15	.0080885	.012518	.00006259
298.15	.0104657	.012331	.000061655
298.15	.012593	.012194	.00006097
308.15	.0004882	.013693	.000068465
308.15	.0010405	.01354	.0000677
308.15	.0015672	.013488	.00006744
308.15	.0019526	.013351	.000066755
308.15	.0029546	.013206	.00006603
308.15	.0038796	.013061	.000065305
308.15	.0048816	.01292	.0000646
308.15	.0065516	.012832	.00006416
308.15	.008273	.012652	.00006326
308.15	.0099044	.012527	.000062635
308.15	.0120626	.012366	.00006183
318.15	.000457	.015038	.00007519
318.15	.001096	.014779	.000073895
318.15	.001486	.014679	.000073395
318.15	.002393	.014325	.000071625
318.15	.003324	.014032	.00007016
318.15	.004652	.013823	.000069115
318.15	.006235	.013439	.000067195
318.15	.008073	.013121	.000065605
318.15	.009991	.012854	.00006427
318.15	.012	.012602	.00006301
318.15	.013802	.012384	.00006192
328.15	.00043	.015838	.00007919
328.15	.000847	.015706	.00007853
328.15	.001805	.01544	.0000772
328.15	.002719	.015213	.000076065
328.15	.003628	.015002	.00007501
328.15	.005125	.014683	.000073415
328.15	.006801	.014354	.00007177
328.15	.008998	.013961	.000069805
328.15	.01111	.013614	.00006807
328.15	.013577	.01324	.0000662

System: water + 1-pentyl-3-methylimidazolium bromide; phases: Liquid
Fixed: Pressure, kPa = 101
Property: Molar conductivity, S*m2/mol (Liquid); method: Conductivity Meter
Temperature, K	Amount concentration (molarity), mol/dm3 of 1-pentyl-3-methylimidazolium bromide	Molar conductivity, S*m2/mol	uncertainty
298.15	.000384	.011131	.000055655
298.15	.0008844	.011091	.000055455
298.15	.0013731	.011017	.000055085
298.15	.0018968	.010981	.000054905
298.15	.0023971	.010946	.00005473
298.15	.0030022	.010825	.000054125
298.15	.004323	.010705	.000053525
298.15	.0057427	.010598	.00005299
298.15	.0071798	.010488	.00005244
298.15	.008646	.010357	.000051785
298.15	.0101122	.010249	.000051245
298.15	.0114504	.01016	.0000508
298.15	.0129283	.010035	.000050175
308.15	.0006353	.011467	.000057335
308.15	.0013056	.011397	.000056985
308.15	.0020284	.0113	.0000565
308.15	.0026812	.011256	.00005628
308.15	.0033515	.011156	.00005578
308.15	.0039752	.011104	.00005552
308.15	.0046047	.011024	.00005512
308.15	.0059803	.010871	.000054355
308.15	.007554	.010703	.000053515
308.15	.0088946	.010575	.000052875
308.15	.0103343	.010454	.00005227
308.15	.0117565	.010337	.000051685
308.15	.0142221	.010141	.000050705
318.15	.0004898	.013635	.000068175
318.15	.0010559	.013507	.000067535
318.15	.002177	.013354	.00006677
318.15	.0032492	.013133	.000065665
318.15	.0047677	.01277	.00006385
318.15	.0067977	.01241	.00006205
318.15	.0091434	.012	.00006
318.15	.012594	.011483	.000057415
318.15	.0168664	.010934	.00005467
318.15	.0223416	.010318	.00005159
328.15	.0004268	.01461	.00007305
328.15	.0008311	.014079	.000070395
328.15	.001314	.013851	.000069255
328.15	.0022518	.013674	.00006837
328.15	.0032738	.013544	.00006772
328.15	.0047732	.013304	.00006652
328.15	.0063287	.013065	.000065325
328.15	.0082885	.012813	.000064065
328.15	.0107817	.012531	.000062655
328.15	.0138927	.012186	.00006093
328.15	.0179134	.011779	.000058895
328.15	.0223272	.01152	.0000576
328.15	.026112	.011098	.00005549

System: water + 1-hexyl-3-methylimidazolium bromide; phases: Liquid
Fixed: Pressure, kPa = 101
Property: Molar conductivity, S*m2/mol (Liquid); method: Conductivity Meter
Temperature, K	Amount concentration (molarity), mol/dm3 of 1-hexyl-3-methylimidazolium bromide	Molar conductivity, S*m2/mol	uncertainty
298.15	.0004233	.010394	.00005197
298.15	.0008352	.010287	.000051435
298.15	.0013271	.010199	.000050995
298.15	.0017847	.010139	.000050695
298.15	.0022309	.010119	.000050595
298.15	.0032033	.009963	.000049815
298.15	.0041243	.009826	.00004913
298.15	.0051425	.009735	.000048675
298.15	.0068414	.009548	.00004774
298.15	.0084946	.009405	.000047025
298.15	.0102163	.009229	.000046145
298.15	.0121097	.009046	.00004523
298.15	.0146381	.008802	.00004401
308.15	.0004492	.01076	.0000538
308.15	.0010267	.010645	.000053225
308.15	.001581	.010512	.00005256
308.15	.0020652	.010425	.000052125
308.15	.0027244	.010355	.000051775
308.15	.0039145	.010183	.000050915
308.15	.0051162	.009992	.00004996
308.15	.0064113	.009873	.000049365
308.15	.0085348	.009646	.00004823
308.15	.0105241	.009457	.000047285
308.15	.0125951	.009269	.000046345
308.15	.0145786	.00912	.0000456
318.15	.0004492	.010967	.000054835
318.15	.0010267	.010907	.000054535
318.15	.001581	.010775	.000053875
318.15	.0020652	.010665	.000053325
318.15	.0027244	.010579	.000052895
318.15	.0039145	.010436	.00005218
318.15	.0051162	.010257	.000051285
318.15	.0064113	.010156	.00005078
318.15	.0085348	.009928	.00004964
318.15	.0105241	.009712	.00004856
318.15	.0125951	.00953	.00004765
318.15	.0145786	.009346	.00004673
328.15	.0005148	.011425	.000057125
328.15	.0010412	.011297	.000056485
328.15	.001608	.011072	.00005536
328.15	.0022154	.010961	.000054805
328.15	.0026954	.010873	.000054365
328.15	.003725	.01067	.00005335
328.15	.004772	.010543	.000052715
328.15	.0058363	.010343	.000051715
328.15	.0074616	.010165	.000050825
328.15	.0091101	.009965	.000049825
328.15	.0107008	.009848	.00004924
328.15	.0124303	.009632	.00004816
328.15	.0146977	.009453	.000047265

System: water + 1-butyl-3-methylimidazolium iodide; phases: Liquid
Fixed: Pressure, kPa = 101
Property: Molar conductivity, S*m2/mol (Liquid); method: Conductivity Meter
Temperature, K	Amount concentration (molarity), mol/dm3 of 1-butyl-3-methylimidazolium iodide	Molar conductivity, S*m2/mol	uncertainty
298.15	.0009058	.013826	.00006913
298.15	.0013658	.013687	.000068435
298.15	.0020168	.013637	.000068185
298.15	.0028094	.013513	.000067565
298.15	.0037151	.013424	.00006712
298.15	.00495	.013286	.00006643
298.15	.0060822	.013182	.00006591
298.15	.0075293	.013051	.000065255
298.15	.0090932	.012904	.00006452
298.15	.0110534	.012724	.00006362
298.15	.0130596	.012569	.000062845
298.15	.0148889	.012462	.00006231
298.15	.0170578	.012331	.000061655
298.15	.0197787	.012172	.00006086
298.15	.022811	.012009	.000060045
308.15	.0004602	.013862	.00006931
308.15	.0008351	.013825	.000069125
308.15	.0012783	.013695	.000068475
308.15	.0017257	.013511	.000067555
308.15	.0020879	.013466	.00006733
308.15	.0025395	.013336	.00006668
308.15	.0033406	.013191	.000065955
308.15	.0041842	.013115	.000065575
308.15	.0050662	.012944	.00006472
308.15	.0065022	.012729	.000063645
308.15	.0078273	.012568	.00006284
308.15	.0096851	.012357	.000061785
308.15	.0115343	.01217	.00006085
318.15	.0002077	.01441	.00007205
318.15	.0005721	.014296	.00007148
318.15	.000962	.01423	.00007115
318.15	.0013392	.014112	.00007056
318.15	.0021106	.01392	.0000696
318.15	.0027548	.013754	.00006877
318.15	.0035812	.013568	.00006784
318.15	.0043949	.013356	.00006678
318.15	.0053993	.013194	.00006597
318.15	.0066919	.013001	.000065005
318.15	.0079422	.012815	.000064075
318.15	.0095611	.012611	.000063055
318.15	.0116208	.012381	.000061905
328.15	.0004059	.014567	.000072835
328.15	.00074	.014495	.000072475
328.15	.0011163	.014321	.000071605
328.15	.0018647	.014145	.000070725
328.15	.0026258	.013922	.00006961
328.15	.0033743	.01378	.0000689
328.15	.004072	.013653	.000068265
328.15	.0052136	.013435	.000067175
328.15	.0064441	.013221	.000066105
328.15	.0075985	.013022	.00006511
328.15	.0092518	.012808	.00006404
328.15	.0104484	.012643	.000063215
328.15	.0118818	.012481	.000062405
