Measured thermophysical data. Conductivity is a contrivance to explore ion-pair and triple-ion structure of ethanoates in tetrahydrofuran, dimethyl sulfoxide and their binaries
Source: Fluid Phase Equilib., 2012, 10.1016/j.fluid.2012.02.013
Compound 1: tetrahydrofuran, C4H8O, purity 99%
Compound 2: dimethyl sulfoxide, C2H6OS, purity 99%
Compound 3: lithium acetate, C2H3LiO2, purity 99%
Compound 4: potassium ethanoate, C2H3KO2, purity 99%
Compound 5: acetic acid, ammonium salt, C2H7NO2, purity 99%
Compound 6: sodium ethanoate, C2H3NaO2, purity 99%
Compound 7: tetrabutylammonium acetate, C18H39NO2
Compound 8: sodium tetraphenylboron, C24H20BNa
Compound 9: water, H2O, purity 99.9%

System: dimethyl sulfoxide + tetrahydrofuran; phases: Liquid
Fixed: Temperature, K = 298.15
Fixed: Pressure, kPa = 101
Property: Mass density, kg/m3 (Liquid); method: Vibrating tube method
Mass fraction of tetrahydrofuran	Mass density, kg/m3	uncertainty
0	1095.8	.0002
.25	1036.7	.0002
.5	984.7	.0002
.75	934	.0002
1	881.1	.0002

System: dimethyl sulfoxide + tetrahydrofuran; phases: Liquid
Fixed: Temperature, K = 298.15
Fixed: Pressure, kPa = 101
Property: Viscosity, Pa*s (Liquid); method: Capillary tube (Ostwald; Ubbelohde) method
Mass fraction of tetrahydrofuran	Viscosity, Pa*s	uncertainty
0	.00196	.000003
.25	.0015234	.000003
.5	.0011125	.000003
.75	.0007376	.000003
1	.000463	.000003

System: dimethyl sulfoxide + tetrahydrofuran + acetic acid, ammonium salt; phases: Liquid
Fixed: Temperature, K = 298.15
Fixed: Pressure, kPa = 101
Property: Molar conductivity, S*m2/mol (Liquid); method: Alternating current cell with electrodes
Solvent: Mass ratio of component to other component of binary solvent of tetrahydrofuran	Amount concentration (molarity), mol/dm3 of acetic acid, ammonium salt	Molar conductivity, S*m2/mol	uncertainty
0	.0029226	.002485	.00001491
0	.0037344	.002414	.000014484
0	.0044813	.002339	.000014034
0	.0051707	.002257	.000013542
0	.0058091	.002194	.000013164
0	.0064018	.002167	.000013002
0	.0069537	.002112	.000012672
0	.0074688	.002068	.000012408
0	.0079507	.002022	.000012132
0	.0084024	.001975	.00001185
.25	.0059859	.002607	.000015642
.25	.0063184	.002575	.00001545
.25	.0064725	.002559	.000015354
.25	.0066193	.002536	.000015216
.25	.0067592	.002525	.00001515
.25	.0068928	.002514	.000015084
.25	.0071426	.002492	.000014952
.25	.0073715	.002464	.000014784
.25	.0075821	.002447	.000014682
.25	.0077765	.00243	.00001458
.5	.0025195	.002923	.000017538
.5	.0026595	.002887	.000017322
.5	.0027861	.002857	.000017142
.5	.002845	.002841	.000017046
.5	.0029012	.002826	.000016956
.5	.002955	.002812	.000016872
.5	.0030064	.002801	.000016806
.5	.0030556	.002787	.000016722
.5	.0031027	.002776	.000016656
.5	.0031914	.002755	.00001653
.75	.0006268	.003836	.000023016
.75	.0006732	.003794	.000022764
.75	.0007574	.003738	.000022428
.75	.0008316	.003688	.000022128
.75	.0008976	.003632	.000021792
.75	.0009567	.003589	.000021534
.75	.0010098	.003553	.000021318
.75	.0010579	.003521	.000021126
.75	.0011416	.003453	.000020718
.75	.0012118	.003408	.000020448
1	.000082	.001089	.000006534
1	.0000946	.001024	.000006144
1	.0001171	.000967	.000005802
1	.0001366	.000956	.000005736
1	.0001537	.000974	.000005844
1	.0001821	.001032	.000006192
1	.0002049	.001113	.000006678
1	.0002235	.001171	.000007026
1	.0002459	.001305	.00000783
1	.0002634	.001434	.000008604

System: dimethyl sulfoxide + tetrahydrofuran + lithium acetate; phases: Liquid
Fixed: Temperature, K = 298.15
Fixed: Pressure, kPa = 101
Property: Molar conductivity, S*m2/mol (Liquid); method: Alternating current cell with electrodes
Solvent: Mass ratio of component to other component of binary solvent of tetrahydrofuran	Amount concentration (molarity), mol/dm3 of lithium acetate	Molar conductivity, S*m2/mol	uncertainty
0	.0039312	.002172	.000013032
0	.0047174	.002123	.000012738
0	.0054432	.002091	.000012546
0	.0061152	.002042	.000012252
0	.0067392	.00202	.00001212
0	.0073201	.00199	.00001194
0	.0078624	.001934	.000011604
0	.0083696	.001917	.000011502
0	.0088452	.001886	.000011316
0	.0092919	.001869	.000011214
.25	.0013236	.002349	.000014094
.25	.0016913	.002311	.000013866
.25	.0023417	.002232	.000013392
.25	.0028993	.002163	.000012978
.25	.0033825	.002114	.000012684
.25	.0038053	.002064	.000012384
.25	.00451	.001952	.000011712
.25	.0050738	.001886	.000011316
.25	.005535	.001823	.000010938
.25	.0059194	.001789	.000010734
.5	.0016467	.002389	.000014334
.5	.0019211	.002345	.00001407
.5	.0023731	.002261	.000013566
.5	.00273	.002223	.000013338
.5	.0030189	.002178	.000013068
.5	.003362	.002145	.00001287
.5	.0036288	.002083	.000012498
.5	.0039042	.002055	.00001233
.5	.0041167	.002027	.000012162
.5	.0043225	.001993	.000011958
.75	.0004133	.002831	.000016986
.75	.0005281	.002797	.000016782
.75	.0006337	.002756	.000016536
.75	.0007312	.002724	.000016344
.75	.0009053	.002662	.000015972
.75	.0010562	.00262	.00001572
.75	.0011883	.002584	.000015504
.75	.0014083	.00251	.00001506
.75	.0015843	.002453	.000014718
.75	.0017284	.002412	.000014472
1	.0000559	.001276	.000007656
1	.0000645	.001065	.00000639
1	.0000798	.000875	.00000525
1	.0001048	.000835	.00000501
1	.0001323	.001241	.000007446
1	.0001464	.00165	.0000099
1	.0001579	.002035	.00001221
1	.0001676	.002437	.000014622
1	.0001759	.002886	.000017316
1	.0001831	.003239	.000019434

System: dimethyl sulfoxide + tetrahydrofuran + sodium ethanoate; phases: Liquid
Fixed: Temperature, K = 298.15
Fixed: Pressure, kPa = 101
Property: Molar conductivity, S*m2/mol (Liquid); method: Alternating current cell with electrodes
Solvent: Mass ratio of component to other component of binary solvent of tetrahydrofuran	Amount concentration (molarity), mol/dm3 of sodium ethanoate	Molar conductivity, S*m2/mol	uncertainty
0	.0029636	.002426	.000014556
0	.0037868	.002365	.00001419
0	.0045442	.002306	.000013836
0	.0052433	.002267	.000013602
0	.0058907	.002211	.000013266
0	.0064917	.002164	.000012984
0	.0070514	.002132	.000012792
0	.0075737	.002089	.000012534
0	.0080623	.002048	.000012288
0	.0085204	.002013	.000012078
.25	.0014664	.002656	.000015936
.25	.0018737	.002589	.000015534
.25	.0022484	.002534	.000015204
.25	.0025944	.002467	.000014802
.25	.0029146	.002422	.000014532
.25	.0032121	.00237	.00001422
.25	.0037474	.002279	.000013674
.25	.0039892	.002216	.000013296
.25	.0042158	.002205	.00001323
.25	.0044287	.002167	.000013002
.5	.0017028	.002655	.00001593
.5	.0019866	.002613	.000015678
.5	.0022349	.002553	.000015318
.5	.0024541	.002512	.000015072
.5	.0026488	.002462	.000014772
.5	.0028231	.002434	.000014604
.5	.0029799	.002393	.000014358
.5	.0031218	.002371	.000014226
.5	.0032508	.002354	.000014124
.5	.0033686	.002332	.000013992
.75	.0004048	.00315	.0000189
.75	.0004723	.003115	.00001869
.75	.0005313	.003087	.000018522
.75	.0005834	.003056	.000018336
.75	.0006297	.003031	.000018186
.75	.0008008	.00291	.00001746
.75	.0009108	.002861	.000017166
.75	.0009875	.002808	.000016848
.75	.001044	.002789	.000016734
.75	.0010874	.002757	.000016542
1	.0000405	.002271	.000013626
1	.0000517	.001643	.000009858
1	.0000716	.001028	.000006168
1	.0000887	.000755	.00000453
1	.0001164	.000848	.000005088
1	.0001278	.001173	.000007038
1	.0001471	.001971	.000011826
1	.0001626	.003046	.000018276
1	.0001755	.003978	.000023868
1	.0001863	.004962	.000029772

System: dimethyl sulfoxide + tetrahydrofuran + potassium ethanoate; phases: Liquid
Fixed: Temperature, K = 298.15
Fixed: Pressure, kPa = 101
Property: Molar conductivity, S*m2/mol (Liquid); method: Alternating current cell with electrodes
Solvent: Mass ratio of component to other component of binary solvent of tetrahydrofuran	Amount concentration (molarity), mol/dm3 of potassium ethanoate	Molar conductivity, S*m2/mol	uncertainty
0	.0045187	.002341	.000014046
0	.0054224	.002278	.000013668
0	.0062566	.002239	.000013434
0	.007029	.002174	.000013044
0	.0077463	.002121	.000012726
0	.0084141	.002089	.000012534
0	.0090373	.002052	.000012312
0	.0096204	.002011	.000012066
0	.010167	.00197	.00001182
0	.0106805	.001932	.000011592
.25	.001496	.002882	.000017292
.25	.0019116	.002807	.000016842
.25	.0022939	.002724	.000016344
.25	.0026468	.002672	.000016032
.25	.0029736	.002603	.000015618
.25	.003277	.002534	.000015204
.25	.0038232	.002437	.000014622
.25	.0040698	.00241	.00001446
.25	.0043011	.002352	.000014112
.25	.0045183	.002312	.000013872
.5	.0009605	.003055	.00001833
.5	.001079	.003013	.000018078
.5	.0011891	.002972	.000017832
.5	.0013873	.002896	.000017376
.5	.0014768	.002863	.000017178
.5	.0015608	.002829	.000016974
.5	.0016396	.002804	.000016824
.5	.0017138	.002779	.000016674
.5	.0018498	.002728	.000016368
.5	.0019715	.002687	.000016122
.75	.000345	.003398	.000020388
.75	.0003981	.003346	.000020076
.75	.0004473	.003311	.000019866
.75	.0004929	.00328	.00001968
.75	.0005751	.003212	.000019272
.75	.0006469	.003147	.000018882
.75	.0007104	.0031	.0000186
.75	.0007667	.003065	.00001839
.75	.0008626	.002985	.00001791
.75	.000941	.002942	.000017652
1	.0000254	.00404	.00002424
1	.0000352	.00293	.00001758
1	.0000435	.00215	.0000129
1	.000048	.00184	.00001104
1	.0000677	.00106	.00000636
1	.0000762	.001	.000006
1	.0000831	.001173	.000007038
1	.0000889	.00137	.00000822
1	.0000938	.001621	.000009726
1	.0000998	.002072	.000012432

System: dimethyl sulfoxide + tetrahydrofuran + sodium tetraphenylboron; phases: Liquid
Fixed: Temperature, K = 298.15
Fixed: Pressure, kPa = 101
Property: Molar conductivity, S*m2/mol (Liquid); method: Alternating current cell with electrodes
Solvent: Mass ratio of component to other component of binary solvent of tetrahydrofuran	Amount concentration (molarity), mol/dm3 of sodium tetraphenylboron	Molar conductivity, S*m2/mol	uncertainty
.25	.001375	.002411	.000014466
.25	.001756	.002376	.000014256
.25	.002108	.002341	.000014046
.25	.002432	.002317	.000013902
.25	.002732	.002289	.000013734
.25	.003011	.002264	.000013584
.25	.0032704	.002246	.000013476
.25	.0035127	.002222	.000013332
.25	.0037393	.002203	.000013218
.25	.0039517	.002184	.000013104
.5	.001858	.002421	.000014526
.5	.00223	.002375	.00001425
.5	.002573	.002334	.000014004
.5	.002891	.002285	.00001371
.5	.003186	.002253	.000013518
.5	.003461	.002212	.000013272
.5	.003717	.002178	.000013068
.5	.004182	.002141	.000012846
.5	.004393	.002115	.00001269
.5	.004592	.0021	.0000126
.75	.0002786	.002834	.000017004
.75	.000307	.002819	.000016914
.75	.0003582	.002787	.000016722
.75	.000403	.002762	.000016572
.75	.0004425	.002742	.000016452
.75	.0004776	.002727	.000016362
.75	.0005091	.002708	.000016248
.75	.0005373	.002686	.000016116
.75	.0005629	.002674	.000016044
.75	.0005862	.002661	.000015966

System: dimethyl sulfoxide + tetrahydrofuran + tetrabutylammonium acetate; phases: Liquid
Fixed: Temperature, K = 298.15
Fixed: Pressure, kPa = 101
Property: Molar conductivity, S*m2/mol (Liquid); method: Alternating current cell with electrodes
Solvent: Mass ratio of component to other component of binary solvent of tetrahydrofuran	Amount concentration (molarity), mol/dm3 of tetrabutylammonium acetate	Molar conductivity, S*m2/mol	uncertainty
.25	.001474	.002477	.000014862
.25	.001883	.002421	.000014526
.25	.00226	.002355	.00001413
.25	.002607	.00231	.00001386
.25	.002929	.002264	.000013584
.25	.003228	.002223	.000013338
.25	.003506	.002173	.000013038
.25	.003766	.002142	.000012852
.25	.004009	.002107	.000012642
.25	.004237	.002071	.000012426
.5	.001725	.002481	.000014886
.5	.001804	.002465	.00001479
.5	.001877	.002447	.000014682
.5	.001947	.002435	.00001461
.5	.002012	.002426	.000014556
.5	.002075	.002414	.000014484
.5	.002134	.002405	.00001443
.5	.00219	.002392	.000014352
.5	.002243	.00238	.00001428
.5	.002294	.002371	.000014226
.75	.0002419	.00299	.00001794
.75	.0002666	.002975	.00001785
.75	.000311	.002944	.000017664
.75	.0003311	.002914	.000017484
.75	.0003499	.002906	.000017436
.75	.0003676	.002898	.000017388
.75	.0003842	.002891	.000017346
.75	.0003999	.002868	.000017208
.75	.0004147	.002853	.000017118
.75	.0004287	.002838	.000017028
