Measured thermophysical data. CO2 solubility and physical properties of N-(2-hydroxyethyl)pyridinium bis(trifluoromethanesulfonyl)amide
Source: Fluid Phase Equilib., 2013, 10.1016/j.fluid.2013.01.003
Compound 1: carbon dioxide, CO2, purity 99%
Compound 2: 1-(2-hydroxyethyl)-pyridinium bis(trifluoromethylsulfonyl)imide, C9H10F6N2O5S2, purity 99%

System: 1-(2-hydroxyethyl)-pyridinium bis(trifluoromethylsulfonyl)imide; phases: Liquid
Fixed: Pressure, kPa = 101.325
Property: Mass density, kg/m3 (Liquid); method: Vibrating tube method
Temperature, K	Mass density, kg/m3	uncertainty
273.15	1614.7	.002
278.15	1609.2	.002
283.15	1604	.002
288.15	1599.44	.002
293.15	1594.47	.002
298.15	1589.51	.002
303.15	1584.59	.002
313.15	1574.82	.002
323.15	1565.16	.002
333.15	1555.59	.002
343.15	1546.08	.002
353.15	1536.66	.002
363.15	1527.29	.002

System: 1-(2-hydroxyethyl)-pyridinium bis(trifluoromethylsulfonyl)imide; phases: Liquid
Fixed: Pressure, kPa = 101.325
Property: Viscosity, Pa*s (Liquid); method: Falling or rolling sphere viscometry
Temperature, K	Viscosity, Pa*s	uncertainty
273.15	.645	.00002
278.15	.4219	.00002
283.15	.2858	.00002
288.15	.2009	.00002
293.15	.1457	.00002
298.15	.1087	.00002
303.15	.08319	.00002
313.15	.05203	.00002
323.15	.03491	.00002
333.15	.02477	.00002
343.15	.01837	.00002
353.15	.01412	.00002
363.15	.01118	.00002

System: 1-(2-hydroxyethyl)-pyridinium bis(trifluoromethylsulfonyl)imide; phases: Liquid
Fixed: Pressure, kPa = 101.325
Property: Electrical conductivity, S/m (Liquid); method: Alternating current cell with electrodes
Temperature, K	Electrical conductivity, S/m	uncertainty
273.15	.04353	.02
278.15	.0655	.02
283.15	.0945	.02
288.15	.1319	.02
293.15	.1778	.02
298.15	.2333	.02
303.15	.2989	.02
313.15	.4613	.02
323.15	.6677	.02
333.15	.912	.02
343.15	1.204	.02
353.15	1.517	.02

System: carbon dioxide + 1-(2-hydroxyethyl)-pyridinium bis(trifluoromethylsulfonyl)imide; phases: Liquid, Gas
Property: Mole fraction of carbon dioxide (Liquid); method: Chromatography
Pressure, kPa	Temperature, K	Mole fraction of carbon dioxide	uncertainty
764	298.15	.16	.002
1314.3	298.15	.252	.002
1786.3	298.15	.317	.002
2197.3	298.15	.367	.002
2818.5	298.15	.431	.002
3485.6	298.15	.489	.002
4012.9	298.15	.527	.002
4583.4	298.15	.563	.002
5044.4	298.15	.589	.002
680.1	313.15	.114	.002
1180	313.15	.184	.002
1585.1	313.15	.234	.002
2005.1	313.15	.28	.002
2697.9	313.15	.346	.002
3312.1	313.15	.395	.002
3839.1	313.15	.432	.002
4360.5	313.15	.465	.002
4997.9	313.15	.498	.002
750.6	333.15	.094	.002
1149	333.15	.136	.002
1573.8	333.15	.178	.002
1836.9	333.15	.202	.002
2337.1	333.15	.244	.002
2841.7	333.15	.282	.002
3543.2	333.15	.329	.002
4277.9	333.15	.371	.002
4404.9	333.15	.378	.002
