Measured thermophysical data. Experimental and thermodynamic modeling study on (vapor + liquid) equilibria and physical properties of ternary systems (methane + n-decane + n-tetradecane)
Source: Fluid Phase Equilib., 2012, 10.1016/j.fluid.2012.06.028
Compound 1: methane, CH4, purity 99.97%
Compound 2: decane, C10H22, purity 99%
Compound 3: tetradecane, C14H30, purity 99%

System: decane + tetradecane; phases: Liquid
Property: Mass density, kg/m3 (Liquid); method: Vibrating tube method
Pressure, kPa	Mole fraction of decane	Temperature, K	Mass density, kg/m3	uncertainty
1000	.75	295	739.2	.1
2000	.75	295	739.9	.1
3000	.75	295	740.7	.1
4000	.75	295	741.4	.1
5000	.75	295	742.1	.1
6000	.75	295	742.8	.1
7000	.75	295	743.5	.1
8000	.75	295	744.2	.1
9000	.75	295	745	.1
10000	.75	295	745.7	.1
1000	.5	295	746.3	.1
3000	.5	295	747.6	.1
4000	.5	295	748.3	.1
5000	.5	295	749	.1
6000	.5	295	749.7	.1
8000	.5	295	751.1	.1
9000	.5	295	751.7	.1
1000	.25	295.5	753.2	.1
2000	.25	295.5	753.9	.1
3000	.25	295.5	754.6	.1
4000	.25	295.5	755.3	.1
5000	.25	295.5	756	.1
6000	.25	295.5	756.7	.1
7000	.25	295.5	757.4	.1
8000	.25	295.5	758	.1
9000	.25	295.5	758.7	.1
10000	.25	295.5	759.4	.1

System: methane + decane + tetradecane; phases: Liquid, Gas
Property: Viscosity, Pa*s (Liquid); method: Moving piston method
Temperature, K	Mole fraction of methane	Mole fraction of decane	Viscosity, Pa*s	uncertainty
294.6	.059	.706	.00111	.00005
294.7	.106	.671	.00105	.00005
294.8	.147	.64	.00098	.00005
294.9	.192	.606	.0009	.00005
295	.228	.579	.00086	.00005
295.2	.263	.553	.00079	.00005
294.7	.293	.53	.00073	.00005
294.7	.329	.503	.00067	.00005
294.4	.061	.47	.00146	.00005
294.6	.106	.447	.00138	.00005
294.4	.149	.425	.00129	.00005
294.5	.194	.403	.00122	.00005
294.9	.227	.386	.00111	.00005
295.3	.269	.366	.00102	.00005
295.2	.294	.353	.00096	.00005
295.2	.324	.338	.00084	.00005
294.8	.062	.235	.0017	.00005
294.9	.105	.224	.0016	.00005
294.6	.151	.212	.00152	.00005
294.7	.189	.203	.00145	.00005
295.3	.231	.192	.00135	.00005
295.4	.267	.183	.00128	.00005
295.8	.301	.175	.0012	.00005
295.8	.327	.168	.00111	.00005

System: methane + decane + tetradecane; phases: Liquid, Gas
Property: Mass density, kg/m3 (Liquid); method: Vibrating tube method
Temperature, K	Mole fraction of methane	Mole fraction of decane	Mass density, kg/m3	uncertainty
294.6	.059	.706	730	1
294.7	.106	.671	725	1
294.8	.147	.64	721	1
294.9	.192	.606	717	1
295	.228	.579	712	1
295.2	.263	.553	707	1
294.7	.293	.53	702	1
294.7	.329	.503	698	1
294.4	.061	.47	741	1
294.6	.106	.447	736	1
294.4	.149	.425	731	1
294.5	.194	.403	726	1
294.9	.227	.386	721	1
295.3	.269	.366	716	1
295.2	.294	.353	712	1
295.2	.324	.338	707	1
294.8	.062	.235	746	1
294.9	.105	.224	742	1
294.6	.151	.212	738	1
294.7	.189	.203	733	1
295.3	.231	.192	729	1
295.4	.267	.183	724	1
295.8	.301	.175	720	1
295.8	.327	.168	716	1

System: methane + decane + tetradecane; phases: Gas, Liquid
Property: Vapor or sublimation pressure, kPa (Gas); method: Closed cell (Static) method
Temperature, K	Mole fraction of methane	Mole fraction of decane	Vapor or sublimation pressure, kPa	uncertainty
294.6	.059	.706	990	10
294.7	.106	.671	2010	10
294.8	.147	.64	2980	10
294.9	.192	.606	4010	10
295	.228	.579	5060	10
295.2	.263	.553	6000	10
294.7	.293	.53	6940	10
294.7	.329	.503	8020	10
294.4	.061	.47	1080	10
294.6	.106	.447	2020	10
294.4	.149	.425	3010	10
294.5	.194	.403	4010	10
294.9	.227	.386	5000	10
295.3	.269	.366	6010	10
295.2	.294	.353	6960	10
295.2	.324	.338	7990	10
294.8	.062	.235	1090	10
294.9	.105	.224	2030	10
294.6	.151	.212	3040	10
294.7	.189	.203	4020	10
295.3	.231	.192	4960	10
295.4	.267	.183	6010	10
295.8	.301	.175	6990	10
295.8	.327	.168	8020	10
