Measured thermophysical data. Solubility  of  puerarin  in  the  binary  system  of  methanol  and  acetic  acid  solvent  mixtures
Source: Fluid Phase Equilib., 2013, 10.1016/j.fluid.2012.11.035
Compound 1: (1S)-1,5-anhydro-1-[7-hydroxy-3-(4-hydroxyphenyl)-4-oxo-4H-chromen-8-yl]-D-glucitol, C21H20O9, purity 99.9%
Compound 2: methyl alcohol, CH4O
Compound 3: ethanoic acid, C2H4O2

System: ethanoic acid + methyl alcohol + (1S)-1,5-anhydro-1-[7-hydroxy-3-(4-hydroxyphenyl)-4-oxo-4H-chromen-8-yl]-D-glucitol; phases: Liquid, Crystal
Fixed: Pressure, kPa = 101
Property: Mole fraction of (1S)-1,5-anhydro-1-[7-hydroxy-3-(4-hydroxyphenyl)-4-oxo-4H-chromen-8-yl]-D-glucitol (Liquid); method: Index of refraction calibration data
Temperature, K	Solvent: Mass fraction of ethanoic acid	Mole fraction of (1S)-1,5-anhydro-1-[7-hydroxy-3-(4-hydroxyphenyl)-4-oxo-4H-chromen-8-yl]-D-glucitol	uncertainty
293.15	0	.00714	.00002
303.15	0	.007865	.00002
313.15	0	.008577	.00002
323.15	0	.009323	.00002
333.15	0	.01018	.00002
293.15	.1	.003518	.00002
303.15	.1	.004049	.00002
313.15	.1	.005127	.00002
323.15	.1	.006972	.00002
333.15	.1	.01005	.00002
293.15	.2	.001429	.00002
303.15	.2	.001965	.00002
313.15	.2	.003066	.00002
323.15	.2	.00513	.00002
333.15	.2	.009633	.00002
293.15	.3	.000672	.00002
303.15	.3	.0009968	.00002
313.15	.3	.001832	.00002
323.15	.3	.003643	.00002
333.15	.3	.007261	.00002
293.15	.4	.0003566	.00002
303.15	.4	.000547	.00002
313.15	.4	.00114	.00002
323.15	.4	.002457	.00002
333.15	.4	.005614	.00002
293.15	.5	.0001499	.00002
303.15	.5	.0002822	.00002
313.15	.5	.0006116	.00002
323.15	.5	.001534	.00002
333.15	.5	.003849	.00002
293.15	.6	.00007769	.00002
303.15	.6	.0001455	.00002
313.15	.6	.0003364	.00002
323.15	.6	.0008651	.00002
333.15	.6	.002341	.00002
