Measured thermophysical data. Solubility and tie-line data for ternary aqueous mixtures of cyclopentanol with organic solvents at T = 298.2 K: Experiments and NRTL model
Source: Fluid Phase Equilib., 2014, 10.1016/j.fluid.2014.07.011
Compound 1: cyclopentanol, C5H10O, purity 99%
Compound 2: furfural, C5H4O2, purity 99%
Compound 3: n-butanol, C4H10O, purity 99.5%
Compound 4: methyl isobutyl ketone, C6H12O, purity 99.5%
Compound 5: ethyl acetate, C4H8O2, purity 99.8%
Compound 6: water, H2O, purity 99.8%

System: cyclopentanol; phases: Liquid, Gas
Property: Boiling temperature at pressure P, K (Liquid); method: Ebulliometric method (Recirculating still)
Pressure, kPa	Boiling temperature at pressure P, K	uncertainty
101.325	412.5	

System: furfural; phases: Liquid, Gas
Property: Boiling temperature at pressure P, K (Liquid); method: Ebulliometric method (Recirculating still)
Pressure, kPa	Boiling temperature at pressure P, K	uncertainty
101.325	435	

System: n-butanol; phases: Liquid, Gas
Property: Boiling temperature at pressure P, K (Liquid); method: Ebulliometric method (Recirculating still)
Pressure, kPa	Boiling temperature at pressure P, K	uncertainty
101.325	390.8	

System: methyl isobutyl ketone; phases: Liquid, Gas
Property: Boiling temperature at pressure P, K (Liquid); method: Ebulliometric method (Recirculating still)
Pressure, kPa	Boiling temperature at pressure P, K	uncertainty
101.325	390.5	

System: ethyl acetate; phases: Liquid, Gas
Property: Boiling temperature at pressure P, K (Liquid); method: Ebulliometric method (Recirculating still)
Pressure, kPa	Boiling temperature at pressure P, K	uncertainty
101.325	350.2	

System: cyclopentanol + methyl isobutyl ketone + water; phases: Liquid mixture 1, Liquid mixture 2
Fixed: Pressure, kPa = 101
Fixed: Temperature, K = 298.15
Property: Mass fraction of cyclopentanol (Liquid mixture 1); method: Phase equilibration
Mass fraction of water	Mass fraction of cyclopentanol	uncertainty
.019	0	.0011
.0376	.1421	.0011
.0622	.3189	.0011
.0972	.491	.0011
.1244	.6231	.0011
.1443	.7489	.0011
.1677	.8323	.0011
.981	0	.0011
.9502	.0243	.0011
.9253	.0532	.0011
.9139	.0861	.0011

System: cyclopentanol + methyl isobutyl ketone + water; phases: Liquid mixture 2, Liquid mixture 1
Fixed: Pressure, kPa = 101
Property: Mass fraction of water (Liquid mixture 2); method: Chromatography
Property: Mass fraction of cyclopentanol (Liquid mixture 1); method: Chromatography
Property: Mass fraction of water (Liquid mixture 1); method: Chromatography
Temperature, K	Mass fraction of cyclopentanol	Mass fraction of water	uncertainty	Mass fraction of cyclopentanol	uncertainty	Mass fraction of water	uncertainty
298.2	.1508	.0379	.0008	.03	.0008	.9447	.0008
298.2	.1818	.0418	.0008	.0359	.0008	.9359	.0008
298.2	.3355	.0667	.0008	.0639	.0008	.9194	.0008
298.2	.375	.0736	.0008	.0686	.0008	.9167	.0008
298.2	.4677	.0949	.0008	.0765	.0008	.9163	.0008
298.2	.5046	.101	.0008	.0806	.0008	.9098	.0008
298.2	.5324	.1094	.0008	.0836	.0008	.9083	.0008
298.2	.6405	.1285	.0008	.0932	.0008	.9044	.0008

System: cyclopentanol + ethyl acetate + water; phases: Liquid mixture 1, Liquid mixture 2
Fixed: Pressure, kPa = 101
Fixed: Temperature, K = 298.15
Property: Mass fraction of cyclopentanol (Liquid mixture 1); method: Phase equilibration
Mass fraction of water	Mass fraction of cyclopentanol	uncertainty
.0432	0	.0011
.06	.1647	.0011
.0858	.3149	.0011
.0981	.4455	.0011
.1137	.5745	.0011
.1318	.7333	.0011
.1464	.8536	.0011
.916	0	.0011
.8906	.0387	.0011
.8914	.0705	.0011
.9206	.0794	.0011

System: cyclopentanol + ethyl acetate + water; phases: Liquid mixture 2, Liquid mixture 1
Fixed: Pressure, kPa = 101
Property: Mass fraction of water (Liquid mixture 2); method: Chromatography
Property: Mass fraction of cyclopentanol (Liquid mixture 1); method: Chromatography
Property: Mass fraction of water (Liquid mixture 1); method: Chromatography
Temperature, K	Mass fraction of cyclopentanol	Mass fraction of water	uncertainty	Mass fraction of cyclopentanol	uncertainty	Mass fraction of water	uncertainty
298.2	.0817	.0489	.0008	.0149	.0008	.9054	.0008
298.2	.152	.059	.0008	.0279	.0008	.9009	.0008
298.2	.2386	.0715	.0008	.0358	.0008	.897	.0008
298.2	.3176	.0883	.0008	.0463	.0008	.8951	.0008
298.2	.4512	.0995	.0008	.0559	.0008	.8935	.0008
298.2	.5313	.1116	.0008	.0593	.0008	.893	.0008
298.2	.6199	.119	.0008	.071	.0008	.8913	.0008
298.2	.6654	.1285	.0008	.0783	.0008	.8987	.0008
298.2	.7563	.1369	.0008	.0756	.0008	.9037	.0008

System: cyclopentanol + furfural + water; phases: Liquid mixture 1, Liquid mixture 2
Fixed: Pressure, kPa = 101
Fixed: Temperature, K = 298.15
Property: Mass fraction of cyclopentanol (Liquid mixture 1); method: Phase equilibration
Mass fraction of water	Mass fraction of cyclopentanol	uncertainty
.0408	0	.0011
.0867	.0995	.0011
.129	.2128	.0011
.1796	.365	.0011
.206	.5193	.0011
.2001	.6272	.0011
.1464	.8536	.0011
.8979	0	.0011
.8844	.0455	.0011
.8906	.0692	.0011
.9206	.0794	.0011

System: cyclopentanol + furfural + water; phases: Liquid mixture 2, Liquid mixture 1
Fixed: Pressure, kPa = 101
Property: Mass fraction of water (Liquid mixture 2); method: Chromatography
Property: Mass fraction of cyclopentanol (Liquid mixture 1); method: Chromatography
Property: Mass fraction of water (Liquid mixture 1); method: Chromatography
Temperature, K	Mass fraction of cyclopentanol	Mass fraction of water	uncertainty	Mass fraction of cyclopentanol	uncertainty	Mass fraction of water	uncertainty
298.2	.0883	.0796	.0008	.021	.0008	.8903	.0008
298.2	.1996	.1229	.0008	.0371	.0008	.8846	.0008
298.2	.2942	.1559	.0008	.0463	.0008	.8851	.0008
298.2	.3575	.1787	.0008	.0545	.0008	.8836	.0008
298.2	.4596	.1985	.0008	.0603	.0008	.8871	.0008
298.2	.5365	.2053	.0008	.07	.0008	.8889	.0008
298.2	.6535	.1959	.0008	.0726	.0008	.8999	.0008
298.2	.7624	.1708	.0008	.0762	.0008	.9077	.0008

System: n-butanol + cyclopentanol + water; phases: Liquid mixture 1, Liquid mixture 2
Fixed: Pressure, kPa = 101
Fixed: Temperature, K = 298.15
Property: Mass fraction of cyclopentanol (Liquid mixture 1); method: Phase equilibration
Mass fraction of water	Mass fraction of cyclopentanol	uncertainty
.1657	0	.0011
.1553	.1457	.0011
.1581	.2937	.0011
.16	.4674	.0011
.1598	.5102	.0011
.1628	.5774	.0011
.1677	.8323	.0011
.9376	0	.0011
.9179	.0267	.0011
.9078	.056	.0011
.9139	.0861	.0011

System: n-butanol + cyclopentanol + water; phases: Liquid mixture 2, Liquid mixture 1
Fixed: Pressure, kPa = 101
Property: Mass fraction of water (Liquid mixture 2); method: Chromatography
Property: Mass fraction of n-butanol (Liquid mixture 1); method: Chromatography
Property: Mass fraction of water (Liquid mixture 1); method: Chromatography
Temperature, K	Mass fraction of n-butanol	Mass fraction of water	uncertainty	Mass fraction of n-butanol	uncertainty	Mass fraction of water	uncertainty
298.2	.0775	.1631	.0008	.0095	.0008	.93	.0008
298.2	.1436	.1553	.0008	.017	.0008	.9286	.0008
298.2	.2398	.1579	.0008	.0279	.0008	.9232	.0008
298.2	.3202	.1592	.0008	.0359	.0008	.9224	.0008
298.2	.3888	.16	.0008	.0417	.0008	.9188	.0008
298.2	.5312	.1605	.0008	.0559	.0008	.9162	.0008
298.2	.6216	.1632	.0008	.062	.0008	.9087	.0008
298.2	.7134	.1646	.0008	.071	.0008	.9089	.0008
