Measured thermophysical data. Phase equilibria for reactive distillation of diethyl succinate. Part II: Systems diethyl succinate + ethyl acetate + water and diethyl succinate + acetic acid + water
Source: Fluid Phase Equilib., 2010, 10.1016/j.fluid.2009.11.013
Compound 1: diethyl butanedioate, C8H14O4
Compound 2: ethanol, C2H6O, purity 99.8%
Compound 3: water, H2O, purity 99.9%
Compound 4: ethyl ethanoate, C4H8O2
Compound 5: ethanoic acid, C2H4O2
Compound 6: 1-butanol, C4H10O
Compound 7: acetonitrile, C2H3N

System: diethyl butanedioate + ethyl ethanoate + water; phases: Liquid mixture 1, Liquid mixture 2
Fixed: Pressure, kPa = 101.325
Property: Liquid-liquid equilibrium temperature, K (Liquid mixture 1); method: Visual observation
Mass fraction of water	Mass fraction of ethyl ethanoate	Liquid-liquid equilibrium temperature, K	uncertainty
.0302	.817	298.15	.05
.0273	.6775	298.15	.05
.0282	.5356	298.15	.05
.0285	.3854	298.15	.05
.0252	.2428	298.15	.05
.0225	.1003	298.15	.05
.9435	.0476	298.15	.05
.9525	.0331	298.15	.05
.9614	.0213	298.15	.05
.9706	.0117	298.15	.05
.9703	.0074	298.15	.05
.9777	0	298.15	.05
.0181	0	298.15	.05
.9195	.0805	298.15	.05
.0403	.9597	298.15	.05

System: diethyl butanedioate + ethyl ethanoate + water; phases: Liquid mixture 1, Liquid mixture 2
Fixed: Temperature, K = 298.15
Fixed: Pressure, kPa = 101.325
Property: Mass fraction of water (Liquid mixture 1); method: Chromatography
Property: Mass fraction of ethyl ethanoate (Liquid mixture 2); method: Chromatography
Property: Mass fraction of water (Liquid mixture 2); method: Chromatography
Mass fraction of ethyl ethanoate	Mass fraction of water	uncertainty	Mass fraction of ethyl ethanoate	uncertainty	Mass fraction of water	uncertainty
.0214	.9598	.009598	.1851	.001851	.0371	.000371
.033	.95	.0095	.3273	.003273	.0328	.000328
.0438	.9439	.009439	.4629	.004629	.0438	.000438
.0534	.9372	.009372	.5567	.005567	.0502	.000502

System: ethanoic acid + diethyl butanedioate + water; phases: Liquid mixture 1, Liquid mixture 2
Fixed: Temperature, K = 298.15
Fixed: Pressure, kPa = 101.325
Property: Mass fraction of ethanoic acid (Liquid mixture 1); method: Chromatography
Property: Mass fraction of water (Liquid mixture 2); method: Chromatography
Property: Mass fraction of ethanoic acid (Liquid mixture 2); method: Chromatography
Mass fraction of water	Mass fraction of ethanoic acid	uncertainty	Mass fraction of water	uncertainty	Mass fraction of ethanoic acid	uncertainty
.8932	.0663	.000663	.0727	.000727	.0294	.000294
.8245	.1326	.001326	.0842	.000842	.0636	.000636
.6895	.2304	.002304	.1414	.001414	.1468	.001468
.4422	.2924	.002924	.2752	.002752	.2678	.002678

System: diethyl butanedioate + ethyl ethanoate; phases: Liquid, Gas
Fixed: Temperature, K = 323.15
Property: Vapor or sublimation pressure, kPa (Liquid); method: Manometric method
Mole fraction of ethyl ethanoate	Vapor or sublimation pressure, kPa	uncertainty
.021	.4132	.004132
.286	6.825	.06825
.483	12.197	.12197
.625	15.849	.15849
.773	19.275	.19275
1	24.82	.2482

System: ethanoic acid + diethyl butanedioate; phases: Liquid, Gas
Fixed: Temperature, K = 323.15
Property: Vapor or sublimation pressure, kPa (Liquid); method: Manometric method
Mole fraction of ethanoic acid	Vapor or sublimation pressure, kPa	uncertainty
0	.07	.0007
.048	.31	.0031
.164	.81	.0081
.235	1.4	.014
.321	1.97	.0197
.406	2.36	.0236
.439	2.73	.0273
.507	3.11	.0311
.572	3.41	.0341
.59	3.84	.0384
.658	4.4	.044
.682	4.4	.044
.757	4.76	.0476
.807	5.32	.0532
.814	5.89	.0589
.899	6.57	.0657
.98	7.35	.0735
1	7.52	.0752

System: ethanol + ethyl ethanoate; phases: Liquid, Gas
Fixed: Pressure, kPa = 101.325
Property: Boiling temperature at pressure P, K (Liquid); method: Pt thermister
Mole fraction of ethyl ethanoate	Boiling temperature at pressure P, K	uncertainty
0	351.55	.05
.0011	351.35	.05
.0158	350.85	.05
.0237	350.35	.05
.0445	349.75	.05
.0609	349.25	.05
.082	348.65	.05
.1368	348.05	.05
.266	346.25	.05
.3566	345.55	.05
.6902	345.35	.05
.8679	346.75	.05
.9374	348.25	.05
.9909	350.25	.05
.9784	349.35	.05
.9224	348.25	.05
.8789	347.45	.05
.8494	346.65	.05
.7772	345.85	.05
.6308	345.35	.05

System: ethanol + ethyl ethanoate; phases: Gas, Liquid
Fixed: Pressure, kPa = 101.325
Property: Boiling temperature at pressure P, K (Gas); method: Pt thermister
Mole fraction of ethyl ethanoate	Boiling temperature at pressure P, K	uncertainty
0	351.55	.05
.0077	351.35	.05
.0491	350.85	.05
.0727	350.35	.05
.1203	349.75	.05
.1639	349.25	.05
.2059	348.65	.05
.2601	348.05	.05
.3979	346.25	.05
.4596	345.55	.05
.6563	345.35	.05
.7964	346.75	.05
.8791	348.25	.05
.9588	349.35	.05
.883	348.25	.05
.8357	347.45	.05
.7995	346.65	.05
.7307	345.85	.05
.6294	345.35	.05
