Measured thermophysical data. Liquid-liquid equilibria of water + 3-hydroxy-2-butanone + ethyl ethanoate
Source: Fluid Phase Equilib., 2011, 10.1016/j.fluid.2011.03.004
Compound 1: ethyl ethanoate, C4H8O2, purity 99.5%
Compound 2: water, H2O
Compound 3: 2,3-butanolone, C4H8O2, purity 98%

System: ethyl ethanoate; phases: Liquid, Gas
Property: Refractive index (Na D-line) (Liquid); method: Standard Abbe refractometry
Temperature, K	Refractive index (Na D-line)	uncertainty
293.15	1.3701	.0001

System: ethyl ethanoate; phases: Liquid, Gas
Property: Normal boiling temperature, K (Liquid); method: Ebulliometric method (Recirculating still)
Normal boiling temperature, K	uncertainty
350.24	.01

System: 2,3-butanolone; phases: Liquid, Gas
Property: Refractive index (Na D-line) (Liquid); method: Standard Abbe refractometry
Temperature, K	Refractive index (Na D-line)	uncertainty
293.15	1.4198	.0001

System: 2,3-butanolone; phases: Liquid, Gas
Property: Normal boiling temperature, K (Liquid); method: Ebulliometric method (Recirculating still)
Normal boiling temperature, K	uncertainty
421.53	.01

System: ethyl ethanoate + 2,3-butanolone + water; phases: Liquid mixture 1, Crystal
Fixed: Pressure, kPa = 101
Property: Mass fraction of 2,3-butanolone (Liquid mixture 1); method: Titration method
Temperature, K	Mass fraction of water	Mass fraction of 2,3-butanolone	uncertainty
298.15	.9179	0	.0002
298.15	.8291	.0833	.0002
298.15	.7732	.1339	.0002
298.15	.7386	.1672	.0002
298.15	.7147	.1863	.0002
298.15	.6404	.2472	.0002
298.15	.5578	.2997	.0002
298.15	.5305	.313	.0002
298.15	.5026	.3274	.0002
298.15	.4378	.3466	.0002
298.15	.366	.366	.0002
298.15	.2957	.3661	.0002
298.15	.2806	.3604	.0002
298.15	.2507	.3587	.0002
298.15	.237	.3565	.0002
298.15	.2003	.3521	.0002
298.15	.1832	.341	.0002
298.15	.1589	.3382	.0002
298.15	.1332	.3155	.0002
298.15	.1089	.3035	.0002
298.15	.0834	.265	.0002
298.15	.063	.2445	.0002
298.15	.0595	.2034	.0002
298.15	.0468	.1846	.0002
298.15	.0447	.1398	.0002
298.15	.0419	.0892	.0002
298.15	.0363	0	.0002
308.15	.9019	0	.0002
308.15	.8505	.0497	.0002
308.15	.8013	.0938	.0002
308.15	.735	.151	.0002
308.15	.6935	.1872	.0002
308.15	.6597	.2107	.0002
308.15	.5647	.281	.0002
308.15	.5252	.3013	.0002
308.15	.4529	.3278	.0002
308.15	.3857	.3404	.0002
308.15	.3694	.34	.0002
308.15	.3458	.341	.0002
308.15	.3267	.3397	.0002
308.15	.3012	.3395	.0002
308.15	.2806	.3343	.0002
308.15	.2465	.3332	.0002
308.15	.2214	.3259	.0002
308.15	.1915	.3199	.0002
308.15	.1684	.3042	.0002
308.15	.1402	.2937	.0002
308.15	.1204	.2622	.0002
308.15	.0986	.2411	.0002
308.15	.0879	.21	.0002
308.15	.0709	.1842	.0002
308.15	.0691	.1366	.0002
308.15	.0677	.0847	.0002
308.15	.0661	0	.0002
318.15	.8776	0	.0002
318.15	.84	.0324	.0002
318.15	.8027	.0664	.0002
318.15	.7552	.108	.0002
318.15	.7186	.1394	.0002
318.15	.6877	.1621	.0002
318.15	.6138	.2244	.0002
318.15	.5464	.2634	.0002
318.15	.4989	.2871	.0002
318.15	.4497	.2974	.0002
318.15	.425	.3019	.0002
318.15	.4135	.3018	.0002
318.15	.3763	.3038	.0002
318.15	.3157	.3018	.0002
318.15	.29	.3021	.0002
318.15	.2728	.2994	.0002
318.15	.2435	.2968	.0002
318.15	.2308	.2913	.0002
318.15	.2051	.2852	.0002
318.15	.1897	.275	.0002
318.15	.1654	.266	.0002
318.15	.1256	.2296	.0002
318.15	.1123	.1985	.0002
318.15	.0958	.186	.0002
318.15	.0877	.1394	.0002
318.15	.0635	.0691	.0002
318.15	.0596	0	.0002

System: ethyl ethanoate + 2,3-butanolone + water; phases: Liquid mixture 1, Liquid mixture 2
Fixed: Pressure, kPa = 101
Property: Mass fraction of water (Liquid mixture 1); method: Chromatography
Property: Mass fraction of water (Liquid mixture 2); method: Chromatography
Property: Mass fraction of 2,3-butanolone (Liquid mixture 2); method: Chromatography
Temperature, K	Mass fraction of 2,3-butanolone	Mass fraction of water	uncertainty	Mass fraction of water	uncertainty	Mass fraction of 2,3-butanolone	uncertainty
298.15	.2313	.0578	.001	.6832	.001	.2132	.001
308.15	.1613	.0692	.001	.7481	.001	.1422	.001
308.15	.2181	.0913	.001	.6903	.001	.188	.001
308.15	.091	.0684	.001	.8205	.001	.0788	.001
318.15	.2782	.1771	.001	.6129	.001	.2207	.001
318.15	.2142	.1183	.001	.6707	.001	.1786	.001
318.15	.1344	.0832	.001	.746	.001	.1098	.001
318.15	.231	.1243	.001	.6501	.001	.1915	.001
318.15	.0804	.0786	.001	.7977	.001	.0704	.001
318.15	.1822	.0934	.001	.7052	.001	.1532	.001
298.15	.2668	.072	.001	.6277	.001	.2531	.001
298.15	.2023	.0511	.001	.7106	.001	.189	.001
298.15	.1752	.0545	.001	.734	.001	.1646	.001
298.15	.0798	.0456	.001	.8377	.001	.0753	.001
298.15	.1244	.0482	.001	.786	.001	.1198	.001
308.15	.2566	.1063	.001	.6388	.001	.2265	.001
308.15	.18	.0717	.001	.7275	.001	.1607	.001
308.15	.1054	.0704	.001	.8025	.001	.0963	.001
