Measured thermophysical data. Measurements and prediction of ternary liquid-liquid equilibria for mixtures of IL + sulfur compound + hexadecane
Source: Fluid Phase Equilib., 2016, 10.1016/j.fluid.2016.03.014
Compound 1: 1-benzothiophene, C8H6S, purity 98%
Compound 2: dibenzothiophene, C12H8S, purity 98%
Compound 3: acetonitrile, C2H3N, purity 99.9%
Compound 4: hexadecane, C16H34, purity 99%
Compound 5: tetrabutylphosphonium methanesulfonate, C17H39O3PS, purity 98%
Compound 6: triisobutylmethylphosphonium p-toluenesulfonate, C20H37O3PS, purity 98%
Compound 7: 1-butyl-1-methylpyrrolidinium bis(trifluoromethylsulfonyl)imide, C11H20F6N2O4S2, purity 99%
Compound 8: 1-hexyl-1-methylpyrrolidinium bis(trifluoromethanesulfonyl)imide, C13H24F6N2O4S2, purity 99%

System: 1-benzothiophene + hexadecane + 1-butyl-1-methylpyrrolidinium bis(trifluoromethylsulfonyl)imide; phases: Liquid mixture 2, Liquid mixture 1
Property: Mole fraction of hexadecane (Liquid mixture 2); method: Chromatography
Property: Mole fraction of 1-benzothiophene (Liquid mixture 1); method: Chromatography
Property: Mole fraction of hexadecane (Liquid mixture 1); method: Chromatography
Temperature, K	Pressure, kPa	Mole fraction of 1-benzothiophene	Mole fraction of hexadecane	uncertainty	Mole fraction of 1-benzothiophene	uncertainty	Mole fraction of hexadecane	uncertainty
303.15	101	.2486	.7514	.0001	.4606	.0001	.0209	.0001
303.15	101	.2025	.7975	.0001	.3725	.0001	.0406	.0001
303.15	101	.09	.91	.0001	.3196	.0001	.0129	.0001
303.15	101	.0697	.9303	.0001	.1571	.0001	.0299	.0001
303.15	101	.0375	.9625	.0001	.0788	.0001	.0597	.0001
303.15	101	0	1	.0001	0	.0001	.0768	.0001

System: 1-benzothiophene + hexadecane + 1-hexyl-1-methylpyrrolidinium bis(trifluoromethanesulfonyl)imide; phases: Liquid mixture 2, Liquid mixture 1
Property: Mole fraction of hexadecane (Liquid mixture 2); method: Chromatography
Property: Mole fraction of 1-benzothiophene (Liquid mixture 1); method: Chromatography
Property: Mole fraction of hexadecane (Liquid mixture 1); method: Chromatography
Temperature, K	Pressure, kPa	Mole fraction of 1-benzothiophene	Mole fraction of hexadecane	uncertainty	Mole fraction of 1-benzothiophene	uncertainty	Mole fraction of hexadecane	uncertainty
303.15	101	.2049	.7951	.0001	.5852	.0001	.0012	.0001
303.15	101	.1748	.8252	.0001	.5207	.0001	.0039	.0001
303.15	101	.1698	.8302	.0001	.4082	.0001	.0338	.0001
303.15	101	.1178	.8822	.0001	.3085	.0001	.0303	.0001
303.15	101	.0604	.9396	.0001	.1766	.0001	.0338	.0001
303.15	101	.0313	.9687	.0001	.0925	.0001	.075	.0001
303.15	101	0	1	.0001	0	.0001	.0815	.0001

System: 1-benzothiophene + hexadecane + triisobutylmethylphosphonium p-toluenesulfonate; phases: Liquid mixture 2, Liquid mixture 1
Property: Mole fraction of hexadecane (Liquid mixture 2); method: Chromatography
Property: Mole fraction of 1-benzothiophene (Liquid mixture 1); method: Chromatography
Property: Mole fraction of hexadecane (Liquid mixture 1); method: Chromatography
Temperature, K	Pressure, kPa	Mole fraction of 1-benzothiophene	Mole fraction of hexadecane	uncertainty	Mole fraction of 1-benzothiophene	uncertainty	Mole fraction of hexadecane	uncertainty
303.15	101	.2435	.7565	.0001	.5381	.0001	.0124	.0001
303.15	101	.1716	.8284	.0001	.4459	.0001	.0174	.0001
303.15	101	.1668	.8332	.0001	.3811	.0001	.0285	.0001
303.15	101	.1051	.8949	.0001	.2891	.0001	.0309	.0001
303.15	101	.0574	.9426	.0001	.1594	.0001	.0488	.0001
303.15	101	.03	.97	.0001	.0828	.0001	.0693	.0001
303.15	101	0	1	.0001	0	.0001	.08	.0001

System: 1-benzothiophene + hexadecane + tetrabutylphosphonium methanesulfonate; phases: Liquid mixture 2, Liquid mixture 1
Property: Mole fraction of hexadecane (Liquid mixture 2); method: Chromatography
Property: Mole fraction of 1-benzothiophene (Liquid mixture 1); method: Chromatography
Property: Mole fraction of hexadecane (Liquid mixture 1); method: Chromatography
Temperature, K	Pressure, kPa	Mole fraction of 1-benzothiophene	Mole fraction of hexadecane	uncertainty	Mole fraction of 1-benzothiophene	uncertainty	Mole fraction of hexadecane	uncertainty
333.15	101	.2503	.7497	.0001	.4942	.0001	.0505	.0001
333.15	101	.2033	.7967	.0001	.4309	.0001	.0623	.0001
333.15	101	.1227	.8773	.0001	.3753	.0001	.0433	.0001
333.15	101	.1106	.8894	.0001	.2611	.0001	.0716	.0001
333.15	101	.0567	.9433	.0001	.1429	.0001	.0896	.0001
333.15	101	.036	.964	.0001	.0726	.0001	.0806	.0001
333.15	101	0	1	.0001	0	.0001	.0978	.0001

System: dibenzothiophene + hexadecane + 1-butyl-1-methylpyrrolidinium bis(trifluoromethylsulfonyl)imide; phases: Liquid mixture 2, Liquid mixture 1
Property: Mole fraction of hexadecane (Liquid mixture 2); method: Chromatography
Property: Mole fraction of hexadecane (Liquid mixture 1); method: Chromatography
Property: Mole fraction of dibenzothiophene (Liquid mixture 1); method: Chromatography
Temperature, K	Pressure, kPa	Mole fraction of dibenzothiophene	Mole fraction of hexadecane	uncertainty	Mole fraction of hexadecane	uncertainty	Mole fraction of dibenzothiophene	uncertainty
303.15	101	.0112	.9888	.0001	.1118	.0001	.0191	.0001
303.15	101	.0093	.9907	.0001	.0634	.0001	.0163	.0001
303.15	101	.0073	.9927	.0001	.0727	.0001	.0133	.0001
303.15	101	.0053	.9947	.0001	.0764	.0001	.0103	.0001
303.15	101	.0037	.9963	.0001	.0803	.0001	.0064	.0001
303.15	101	.0017	.9983	.0001	.052	.0001	.0032	.0001

System: dibenzothiophene + hexadecane + 1-hexyl-1-methylpyrrolidinium bis(trifluoromethanesulfonyl)imide; phases: Liquid mixture 2, Liquid mixture 1
Property: Mole fraction of hexadecane (Liquid mixture 2); method: Chromatography
Property: Mole fraction of hexadecane (Liquid mixture 1); method: Chromatography
Property: Mole fraction of dibenzothiophene (Liquid mixture 1); method: Chromatography
Temperature, K	Pressure, kPa	Mole fraction of dibenzothiophene	Mole fraction of hexadecane	uncertainty	Mole fraction of hexadecane	uncertainty	Mole fraction of dibenzothiophene	uncertainty
303.15	101	.0095	.9905	.0001	.0607	.0001	.0238	.0001
303.15	101	.0079	.9921	.0001	.0654	.0001	.0198	.0001
303.15	101	.0062	.9938	.0001	.0505	.0001	.0162	.0001
303.15	101	.0045	.9955	.0001	.0371	.0001	.0127	.0001
303.15	101	.003	.997	.0001	.0529	.0001	.0082	.0001
303.15	101	.0016	.9984	.0001	.0637	.0001	.0042	.0001
303.15	101	0	1	.0001	.0815	.0001	0	.0001

System: dibenzothiophene + hexadecane + triisobutylmethylphosphonium p-toluenesulfonate; phases: Liquid mixture 2, Liquid mixture 1
Property: Mole fraction of hexadecane (Liquid mixture 2); method: Chromatography
Property: Mole fraction of hexadecane (Liquid mixture 1); method: Chromatography
Property: Mole fraction of dibenzothiophene (Liquid mixture 1); method: Chromatography
Temperature, K	Pressure, kPa	Mole fraction of dibenzothiophene	Mole fraction of hexadecane	uncertainty	Mole fraction of hexadecane	uncertainty	Mole fraction of dibenzothiophene	uncertainty
303.15	101	.003	.997	.0001	.0677	.0001	.0072	.0001
303.15	101	.0023	.9977	.0001	.0588	.0001	.0064	.0001
303.15	101	.0019	.9981	.0001	.0556	.0001	.005	.0001
303.15	101	.0014	.9986	.0001	.0545	.0001	.0037	.0001
303.15	101	.001	.999	.0001	.0543	.0001	.0025	.0001
303.15	101	.0005	.9995	.0001	.0639	.0001	.0009	.0001
303.15	101	0	1	.0001	.08	.0001	0	.0001

System: dibenzothiophene + hexadecane + tetrabutylphosphonium methanesulfonate; phases: Liquid mixture 2, Liquid mixture 1
Property: Mole fraction of hexadecane (Liquid mixture 2); method: Chromatography
Property: Mole fraction of dibenzothiophene (Liquid mixture 1); method: Chromatography
Property: Mole fraction of hexadecane (Liquid mixture 1); method: Chromatography
Temperature, K	Pressure, kPa	Mole fraction of dibenzothiophene	Mole fraction of hexadecane	uncertainty	Mole fraction of dibenzothiophene	uncertainty	Mole fraction of hexadecane	uncertainty
333.15	101	.0063	.9937	.0001	.023	.0001	.0683	.0001
333.15	101	.0049	.9951	.0001	.0194	.0001	.066	.0001
333.15	101	.0042	.9958	.0001	.0153	.0001	.0703	.0001
333.15	101	.0033	.9967	.0001	.0114	.0001	.0697	.0001
333.15	101	.002	.998	.0001	.008	.0001	.0786	.0001
333.15	101	.001	.999	.0001	.004	.0001	.074	.0001
333.15	101	0	1	.0001	0	.0001	.0978	.0001
