Measured thermophysical data. Trihexyl(tetradecyl)phosphonium bromide: Liquid density, surface tension  and solubility of carbondioxide
Source: Fluid Phase Equilib., 2012, 10.1016/j.fluid.2012.03.005
Compound 1: tetradecyltrihexylphosphonium bromide, C32H68BrP, purity 95%
Compound 2: carbon dioxide, CO2, purity 99.98%

System: tetradecyltrihexylphosphonium bromide; phases: Liquid, Gas
Property: Critical temperature, K (Liquid); method: Calculated from experimental data with the Eotvos equation
Critical temperature, K	uncertainty
783.3	

System: tetradecyltrihexylphosphonium bromide; phases: Liquid
Fixed: Pressure, kPa = 101.325
Property: Mass density, kg/m3 (Liquid); method: Vibrating tube method
Temperature, K	Mass density, kg/m3	uncertainty
293.15	961.7	.01
297.15	959.2	.01
298.15	958.6	.01
301.15	956.7	.01
303.15	955.5	.01
305.15	954.3	.01
308.15	952.4	.01
309.15	951.8	.01
313.15	949.3	.01
317.15	946.9	.01
318.15	946.2	.01
321.15	944.4	.01
323.15	943.1	.01
325.15	941.9	.01
328.15	940.1	.01
329.15	939.4	.01
333.15	937	.01
337.15	934.6	.01
338.15	934	.01
341.15	932.1	.01
343.15	930.9	.01
345.15	929.7	.01

System: tetradecyltrihexylphosphonium bromide; phases: Liquid, Air at 1 atmosphere
Property: Surface tension liquid-gas, N/m (Liquid); method: Pendant drop shape
Temperature, K	Surface tension liquid-gas, N/m	uncertainty
293.15	.02997	.00002
298.15	.02932	.00002
303.15	.02894	.00002
308.15	.02853	.00002
313.15	.02815	.00002
318.15	.02781	.00002
323.15	.02746	.00002
328.15	.02712	.00002
333.15	.02678	.00002
338.15	.02657	.00002
343.15	.02624	.00002

System: carbon dioxide + tetradecyltrihexylphosphonium bromide; phases: Liquid, Gas
Property: Mole fraction of carbon dioxide (Liquid); method: Saturation isochoric method
Temperature, K	Pressure, kPa	Mole fraction of carbon dioxide	uncertainty
313.2	8160	.762	.01
313.2	10540	.788	.01
313.2	15040	.812	.01
313.2	20870	.818	.01
323.2	8830	.717	.01
323.2	10400	.741	.01
323.2	14940	.786	.01
323.2	21230	.79	.01
