Measured thermophysical data. Investigation the solubility difference of sodium 4-nitrotoluene-2-sulfonate and 4-nitrotoluene-2-sulfonic acid in (sulfuric acid + water) system
Source: Fluid Phase Equilib., 2013, 10.1016/j.fluid.2013.08.023
Compound 1: p-nitrotoluene-o-sulfonic acid, C7H7NO5S, purity 99.7%
Compound 2: sodium 2-methyl-5-nitrobenzenesulfonate, C7H6NNaO5S, purity 99.8%
Compound 3: sulfuric acid, H2O4S, purity 96.5%
Compound 4: sodium hydroxide, HNaO, purity 96%
Compound 5: water, H2O, purity 99.8%

System: sodium 2-methyl-5-nitrobenzenesulfonate + sulfuric acid + water; phases: Liquid, Crystal
Fixed: Pressure, kPa = 101
Property: Solid-liquid equilibrium temperature, K (Liquid); method: Visual observation
Solvent: Mass fraction of sulfuric acid	Mole fraction of sodium 2-methyl-5-nitrobenzenesulfonate	Solid-liquid equilibrium temperature, K	uncertainty
0	.005259	286.45	.1
0	.005619	288.55	.1
0	.005977	290.25	.1
0	.006749	293.75	.1
0	.007325	296.05	.1
0	.008025	298.55	.1
0	.008723	300.95	.1
0	.009191	302.55	.1
0	.009744	304.15	.1
0	.01011	306.25	.1
0	.01083	308.35	.1
0	.0115	311.75	.1
0	.01216	312.95	.1
0	.0136	317.45	.1
.1	.005976	288.15	.1
.1	.006344	289.65	.1
.1	.006795	292.15	.1
.1	.00781	296.35	.1
.1	.009414	302.45	.1
.1	.01137	309.45	.1
.1	.01271	314.35	.1
.1	.01409	319.05	.1
.1	.0157	324.05	.1
.1	.01742	329.15	.1
.1	.01919	333.75	.1
.2	.005219	289.85	.1
.2	.005801	292.65	.1
.2	.006365	295.45	.1
.2	.006953	298.15	.1
.2	.007542	301.65	.1
.2	.008452	305.85	.1
.2	.00967	311.45	.1
.2	.01077	316.05	.1
.2	.01206	321.05	.1
.2	.01345	325.45	.1
.2	.01533	331.95	.1
.3	.0013	289.45	.1
.3	.001798	294.45	.1
.3	.00219	297.05	.1
.3	.003115	302.15	.1
.3	.004585	307.15	.1
.3	.006218	310.95	.1
.3	.006517	311.55	.1
.3	.006953	312.35	.1
.3	.009499	320.25	.1
.3	.01008	322.15	.1
.3	.01105	326.15	.1
.3	.01148	327.15	.1
.3	.01288	331.85	.1
.3	.0138	335.35	.1
.3	.01428	336.15	.1
.5	.00008431	288.65	.1
.5	.0001091	293.15	.1
.5	.0001512	297.15	.1
.5	.0002028	301.15	.1
.5	.0003724	309.65	.1
.5	.0005662	315.65	.1
.5	.0007803	320.75	.1
.5	.0009664	324.65	.1
.5	.001222	328.75	.1
.5	.001473	331.85	.1
.5	.001722	335.35	.1
.6	.00007167	290.85	.1
.6	.0001116	296.55	.1
.6	.000144	300.25	.1
.6	.0002259	307.75	.1
.6	.0002829	312.65	.1
.6	.0003475	317.85	.1
.6	.000424	321.95	.1
.6	.000572	325.65	.1
.6	.0007748	329.15	.1
.6	.001031	332.95	.1
.6	.001564	338.75	.1
.7	.00008331	288.65	.1
.7	.0001137	292.15	.1
.7	.0001487	295.95	.1
.7	.0002205	300.55	.1
.7	.0003019	305.25	.1
.7	.000386	309.75	.1
.7	.0006474	311.95	.1
.7	.000913	314.65	.1
.7	.001095	316.25	.1
.7	.001543	321.95	.1
.7	.0022	328.35	.1
.7	.002806	333.25	.1
.7	.003397	337.05	.1

System: p-nitrotoluene-o-sulfonic acid + sulfuric acid + water; phases: Liquid, Crystal
Fixed: Pressure, kPa = 101
Property: Solid-liquid equilibrium temperature, K (Liquid); method: Visual observation
Solvent: Mass fraction of sulfuric acid	Mole fraction of p-nitrotoluene-o-sulfonic acid	Solid-liquid equilibrium temperature, K	uncertainty
.1	.04756	292.25	.1
.1	.05205	295.85	.1
.1	.05729	299.45	.1
.1	.06334	304.05	.1
.1	.06927	305.65	.1
.1	.07516	311.75	.1
.1	.08095	313.15	.1
.1	.08955	318.35	.1
.1	.09789	323.15	.1
.1	.107	328.75	.1
.2	.01123	289.55	.1
.2	.01431	293.55	.1
.2	.01738	296.85	.1
.2	.02205	300.95	.1
.2	.02781	305.25	.1
.2	.03537	310.75	.1
.2	.04364	316.15	.1
.2	.05194	321.45	.1
.2	.06004	326.45	.1
.2	.06864	331.45	.1
.3	.001449	290.05	.1
.3	.002227	295.75	.1
.3	.002998	299.85	.1
.3	.003809	303.35	.1
.3	.004605	305.65	.1
.3	.006679	310.65	.1
.3	.008962	314.95	.1
.3	.01163	318.35	.1
.3	.01604	322.55	.1
.3	.02194	327.05	.1
.3	.02778	331.25	.1
.5	.00008454	289.25	.1
.5	.000115	294.05	.1
.5	.0001695	298.05	.1
.5	.0002421	302.75	.1
.5	.0003191	306.65	.1
.5	.0004074	310.25	.1
.5	.0005391	313.65	.1
.5	.0007583	317.75	.1
.5	.0009759	322.75	.1
.5	.001168	325.85	.1
.5	.001228	327.15	.1
.5	.001491	330.75	.1
.5	.001831	334.15	.1
.55	.00005728	289.65	.1
.55	.0000965	294.45	.1
.55	.0001301	296.85	.1
.55	.0001948	301.65	.1
.55	.0002896	306.75	.1
.55	.0004095	312.75	.1
.55	.0005093	317.25	.1
.55	.0006284	322.15	.1
.55	.0007455	326.35	.1
.55	.001102	330.75	.1
.55	.001632	336.95	.1
.6	.00009517	290.75	.1
.6	.0001465	296.55	.1
.6	.0001972	301.55	.1
.6	.0002016	302.65	.1
.6	.0002507	307.25	.1
.6	.0002723	310.05	.1
.6	.0002994	312.55	.1
.6	.0003816	317.35	.1
.6	.0003907	317.55	.1
.6	.0005431	322.45	.1
.6	.0005675	323.15	.1
.6	.0007142	325.95	.1
.6	.0009598	329.45	.1
.6	.001077	331.05	.1
.6	.001299	333.45	.1
.6	.001759	338.15	.1
.7	.00007255	290.05	.1
.7	.0001591	295.25	.1
.7	.0002526	300.65	.1
.7	.0003481	305.75	.1
.7	.0004776	310.75	.1
.7	.0009423	315.15	.1
.7	.001408	319.25	.1
.7	.001878	322.55	.1
.7	.002322	326.55	.1
.7	.002887	330.95	.1
.7	.003564	335.45	.1
