Measured thermophysical data. Solution thermodynamics of indomethacin in propylene glycol + water mixtures
Source: Fluid Phase Equilib., 2012, 10.1016/j.fluid.2011.11.001
Compound 1: 1-(4-chlorobenzoyl)-5-methoxy-2-methyl-1H-indole-3-acetic acid, C19H16ClNO4, purity 99.8%
Compound 2: 1,2-propanediol, C3H8O2, purity 99.8%
Compound 3: water, H2O, purity 99.8%

System: 1-(4-chlorobenzoyl)-5-methoxy-2-methyl-1H-indole-3-acetic acid + 1,2-propanediol + water; phases: Liquid, Crystal
Fixed: Pressure, kPa = 101.3
Property: Mole fraction of 1-(4-chlorobenzoyl)-5-methoxy-2-methyl-1H-indole-3-acetic acid (Liquid); method: Spectrophotometry
Temperature, K	Solvent: Mole fraction of 1,2-propanediol	Mole fraction of 1-(4-chlorobenzoyl)-5-methoxy-2-methyl-1H-indole-3-acetic acid	uncertainty
293.15	.1	.000001119	.00000001
298.15	.1	.000001337	.000000014
303.15	.1	.000001582	.000000024
308.15	.1	.000001874	.000000038
313.15	.1	.000002268	.000000038
293.15	.2	.000001601	.000000016
298.15	.2	.000001941	.00000005
303.15	.2	.00000231	.00000006
308.15	.2	.00000285	.00000012
313.15	.2	.00000337	.000008
293.15	.3	.000002693	.000000032
298.15	.3	.00000323	.00000006
303.15	.3	.00000392	.000000028
308.15	.3	.00000494	.00000008
313.15	.3	.00000583	.00000012
293.15	.4	.00000506	.00000018
298.15	.4	.00000594	.00000012
303.15	.4	.00000761	.0000001
308.15	.4	.000009531	.00000005
308.15	.4	.00001139	.00000014
293.15	.5	.00001127	.0000002
298.15	.5	.00001358	.00000042
303.15	.5	.0000171	.00000028
308.15	.5	.0000225	.0000008
313.15	.5	.00002855	.00000018
293.15	.6	.00002463	.00000014
298.15	.6	.00003195	.0000004
303.15	.6	.00004148	.0000004
308.15	.6	.0000551	.0000008
313.15	.6	.0000743	.0000014
293.15	.7	.0000677	.0000004
298.15	.7	.0000915	.000002
303.15	.7	.0001259	.000001
308.15	.7	.0001682	.0000008
313.15	.7	.000234	.000008
293.15	.75	.0001058	.0000006
298.15	.75	.0001399	.000005
303.15	.75	.0002012	.0000042
308.15	.75	.0002782	.000002
313.15	.75	.0003978	.0000028
293.15	.8	.0001546	.000003
298.15	.8	.000237	.000008
303.15	.8	.000292	.000008
308.15	.8	.000426	.000012
313.15	.8	.000617	.00002
293.15	.85	.0002602	.0000016
298.15	.85	.000366	.000008
303.15	.85	.000514	.000012
308.15	.85	.000712	.000016
313.15	.85	.0009813	.0000032
293.15	.9	.0004851	.0000026
298.15	.9	.000646	.000008
303.15	.9	.000841	.000012
308.15	.9	.001162	.00001
313.15	.9	.001619	.000012
293.15	.95	.000832	.000008
298.15	.95	.00105	.00004
303.15	.95	.001464	.000014
308.15	.95	.001851	.000008
313.15	.95	.002522	.000038
293.15	1	.001372	.000044
298.15	1	.00169	.000056
303.15	1	.002267	.00004
308.15	1	.00295	.00012
313.15	1	.003683	.000038
