Measured thermophysical data. High pressure CO2 solubility and physical properties of tetrabutylphosphonium L-prolinate
Source: Fluid Phase Equilib., 2016, 10.1016/j.fluid.2016.02.013
Compound 1: tetrabutylphosphonium L-prolinate, C21H44NO2P, purity 98%
Compound 2: carbon dioxide, CO2, purity 99.99%
Compound 3: tetrabutylphosphonium (S)-2-methylprolinate, C22H46NO2P, purity 98%
Compound 4: tetrabutylphosphonium glycinate, C18H40NO2P, purity 98%

System: tetrabutylphosphonium L-prolinate; phases: Liquid
Fixed: Pressure, kPa = 101.325
Property: Mass density, kg/m3 (Liquid); method: Vibrating tube method
Temperature, K	Mass density, kg/m3	uncertainty
298.15	971.1	
303.15	968.2	
313.15	962.38	
323.15	956.46	
333.15	950.54	
343.15	944.63	
353.15	938.75	
363.15	932.9	

System: tetrabutylphosphonium L-prolinate; phases: Liquid
Fixed: Pressure, kPa = 101.325
Property: Viscosity, Pa*s (Liquid); method: Concentric cylinders viscometry
Temperature, K	Viscosity, Pa*s	uncertainty
298.15	1.025	
303.15	.6928	
313.15	.3436	
323.15	.1861	
333.15	.1087	
343.15	.06774	
353.15	.0445	
363.15	.03061	

System: tetrabutylphosphonium L-prolinate; phases: Liquid
Fixed: Pressure, kPa = 101.325
Property: Electrical conductivity, S/m (Liquid); method: impedance analyzer
Temperature, K	Electrical conductivity, S/m	uncertainty
298.15	.007273	
303.15	.01047	
313.15	.0201	
323.15	.03544	
333.15	.05838	
343.15	.0907	
353.15	.1341	

System: carbon dioxide + tetrabutylphosphonium L-prolinate; phases: Liquid, Gas
Fixed: Pressure, kPa = 100
Property: Amount ratio of solute to solvent of carbon dioxide (Liquid); method: gravimetric method
Temperature, K	Amount ratio of solute to solvent of carbon dioxide	uncertainty
333.2	.97	
352.7	.948	
372.6	.899	
393.2	.805	
313.4	.97	

System: carbon dioxide + tetrabutylphosphonium L-prolinate; phases: Liquid, Gas
Fixed: Temperature, K = 333.2
Property: Vapor or sublimation pressure, kPa (Liquid); method: Closed cell (Static) method
Mole fraction of carbon dioxide	Vapor or sublimation pressure, kPa	uncertainty
.483	17.7	
.492	101.3	
.502	328.1	
.522	851.8	
.541	1424.8	
.555	1884.3	
.568	2293.3	
.582	2792.5	
.596	3282.1	
.609	3790	
.622	4297.9	
.635	4862.8	
.646	5353.6	

System: tetrabutylphosphonium (S)-2-methylprolinate + carbon dioxide; phases: Liquid, Gas
Fixed: Temperature, K = 333.2
Property: Vapor or sublimation pressure, kPa (Liquid); method: Closed cell (Static) method
Mole fraction of carbon dioxide	Vapor or sublimation pressure, kPa	uncertainty
.467	10.6	
.488	135.7	
.499	407.8	
.502	454.6	
.517	908.9	
.542	1558.5	
.552	1928.2	
.565	2331.9	
.578	2782.3	
.586	3041.7	
.591	3272.5	
.604	3797.4	
.616	4319.5	
.628	4887.3	
.638	5350.9	

System: carbon dioxide + tetrabutylphosphonium glycinate; phases: Liquid, Gas
Fixed: Temperature, K = 333.2
Property: Vapor or sublimation pressure, kPa (Liquid); method: Closed cell (Static) method
Mole fraction of carbon dioxide	Vapor or sublimation pressure, kPa	uncertainty
.421	16.3	
.443	61.1	
.448	97.3	
.462	159	
.469	252	
.485	405.5	
.504	798.8	
.531	1601	
.555	2561.4	
.578	3645.4	
.6	4990.6	
