Measured thermophysical data. Isothermal vapor-liquid equilibrium data for the carbon dioxide (R744) + decafluorobutane (R610) system at temperatures from 263 to 353K
Source: Fluid Phase Equilib., 2011, 10.1016/j.fluid.2011.01.017
Compound 1: carbon dioxide, CO2, purity 99.995%
Compound 2: decafluorobutane, C4F10, purity 98%

System: decafluorobutane; phases: Liquid, Gas
Property: Vapor or sublimation pressure, kPa (Liquid); method: Closed cell (Static) method
Temperature, K	Vapor or sublimation pressure, kPa	uncertainty
263.15	72.7	.6
268.12	89.6	.6
268.13	89.6	.6
273.09	109.4	.6
278	132.4	.6
278.03	132.4	.6
278.03	132.3	.6
278.03	132.3	.6
278.03	132.3	.6
278.06	132.6	.6
282.99	159	.6
287.91	189.3	.6
292.97	225.4	.6
297.95	265.3	.6
302.9	310.2	.6
303.13	311.7	.6
307.9	361	.6
308.21	364.3	.6
312.88	417.8	.6
317.88	481.2	.6
322.89	551.7	.6
323.22	556.4	.6
327.88	629.5	.6
332.91	716.1	.6
337.93	811	.6
338.22	816.7	.6
342.91	913	.6
347.93	1025.8	.6
352.92	1149.2	.6
353.01	1151.6	.6

System: carbon dioxide + decafluorobutane; phases: Liquid, Gas
Property: Vapor or sublimation pressure, kPa (Liquid); method: Closed cell (Static) method
Mole fraction of carbon dioxide	Temperature, K	Vapor or sublimation pressure, kPa	uncertainty
.03	263.15	183.2	.6
.0497	263.15	253.9	.6
.0909	263.15	392.2	.6
.1354	263.15	537.2	.6
.2136	263.15	781.8	.6
.2931	263.15	1018.4	.6
.3843	263.15	1274.4	.6
.479	263.15	1522.4	.6
.5818	263.15	1770.7	.6
.693	263.15	2008.3	.6
.8155	263.15	2252.8	.6
.89	263.15	2399.7	.6
.0636	283	458.9	.6
.1369	283	798.8	.6
.2108	283	1135.2	.6
.2956	283	1509.7	.6
.3994	283	1941.8	.6
.4868	283	2303.8	.6
.5816	283	2672.2	.6
.6514	283	2989.9	.6
.7107	283	3218.8	.6
.7747	283	3469.3	.6
.898	283	3990.1	.6
.0593	303.12	654.4	.6
.1457	303.12	1146.9	.6
.2797	303.12	1970.9	.6
.3421	303.12	2377.9	.6
.4306	303.12	2873.5	.6
.4949	303.12	3322.2	.6
.576	303.12	3779.2	.6
.6361	303.12	4203.7	.6
.7136	303.12	4664.6	.6
.7714	303.12	5118.2	.6
.8574	303.12	5785.8	.6
.9171	303.12	6313.5	.6
.9473	303.12	6616.5	.6
.0218	308.19	502.1	.6
.1214	308.19	1132.2	.6
.2421	308.19	1902.2	.6
.3677	308.19	2717	.6
.4837	308.19	3474.7	.6
.6035	308.19	4291.4	.6
.709	308.19	5066.8	.6
.813	308.19	5901.4	.6
.8896	308.19	6638.9	.6
.9119	308.19	6862.8	.6
.0565	323.2	962.5	.6
.1374	323.2	1555.2	.6
.1883	323.2	1928.3	.6
.2528	323.2	2408.1	.6
.3308	323.2	2989.6	.6
.393	323.2	3475.4	.6
.4596	323.2	4010.8	.6
.5227	323.2	4511.2	.6
.5831	323.2	5058.6	.6
.6414	323.2	5609	.6
.7023	323.2	6152.6	.6
.7737	323.2	6737.6	.6
.0713	338.2	1394	.6
.1277	338.2	1851.3	.6
.1943	338.2	2402.6	.6
.256	338.2	2918.8	.6
.3216	338.2	3491.3	.6
.377	338.2	3998.9	.6
.4312	338.2	4491.8	.6
.488	338.2	5011.2	.6
.541	338.2	5490.5	.6
.5921	338.2	5964.2	.6
.6201	338.2	6162.6	.6
.6633	338.2	6371	.6
.0638	352.98	1709.7	.6
.1118	352.98	2134.6	.6
.1567	352.98	2533.4	.6
.2058	352.98	2987.3	.6
.2652	352.98	3552.8	.6
.3236	352.98	4080.1	.6
.3778	352.98	4569.3	.6
.4346	352.98	5090.4	.6
.4735	352.98	5365.3	.6
.4932	352.98	5468.7	.6
.5054	352.98	5518	.6
.5101	352.98	5525.9	.6
.5145	352.98	5533.9	.6

System: carbon dioxide + decafluorobutane; phases: Gas, Liquid
Property: Mole fraction of carbon dioxide (Gas); method: Chromatography
Mole fraction of carbon dioxide	Temperature, K	Mole fraction of carbon dioxide	uncertainty
.03	263.15	.5736	.025
.0497	263.15	.6897	.025
.0909	263.15	.8014	.025
.1354	263.15	.8544	.025
.2136	263.15	.9025	.025
.2931	263.15	.9263	.025
.3843	263.15	.9424	.025
.479	263.15	.954	.025
.5818	263.15	.9624	.025
.693	263.15	.9703	.025
.8155	263.15	.9775	.025
.89	263.15	.983	.025
.0636	283	.6253	.025
.1369	283	.7844	.025
.2108	283	.8467	.025
.2956	283	.8844	.025
.3994	283	.9108	.025
.4868	283	.9251	.025
.5816	283	.9364	.025
.6514	283	.9459	.025
.7107	283	.9512	.025
.7747	283	.9594	.025
.898	283	.9755	.025
.0593	303.12	.48	.025
.1457	303.12	.694	.025
.2797	303.12	.8133	.025
.3421	303.12	.8419	.025
.4306	303.12	.867	.025
.4949	303.12	.8827	.025
.576	303.12	.8966	.025
.6361	303.12	.907	.025
.7136	303.12	.917	.025
.7714	303.12	.9267	.025
.8574	303.12	.943	.025
.9171	303.12	.9583	.025
.9473	303.12	.9695	.025
.0218	308.19	.2418	.025
.1214	308.19	.6381	.025
.2421	308.19	.7735	.025
.3677	308.19	.8339	.025
.4837	308.19	.8656	.025
.6035	308.19	.8882	.025
.709	308.19	.9047	.025
.813	308.19	.9203	.025
.8896	308.19	.9349	.025
.9119	308.19	.9395	.025
.0565	323.2	.3719	.025
.1374	323.2	.5853	.025
.1883	323.2	.6552	.025
.2528	323.2	.715	.025
.3308	323.2	.7594	.025
.393	323.2	.7854	.025
.4596	323.2	.8065	.025
.5227	323.2	.8207	.025
.5831	323.2	.8326	.025
.6414	323.2	.8391	.025
.7023	323.2	.8433	.025
.7737	323.2	.8323	.025
.0713	338.2	.3448	.025
.1277	338.2	.4809	.025
.1943	338.2	.5795	.025
.256	338.2	.6367	.025
.3216	338.2	.6805	.025
.377	338.2	.7053	.025
.4312	338.2	.7229	.025
.488	338.2	.734	.025
.541	338.2	.7398	.025
.5921	338.2	.7375	.025
.6201	338.2	.7319	.025
.6633	338.2	.7049	.025
.0638	352.98	.2492	.025
.1118	352.98	.3641	.025
.1567	352.98	.4355	.025
.2058	352.98	.497	.025
.2652	352.98	.5494	.025
.3236	352.98	.5788	.025
.3778	352.98	.5956	.025
.4346	352.98	.6008	.025
.4735	352.98	.5916	.025
.4932	352.98	.5819	.025
.5054	352.98	.5707	.025
.5101	352.98	.5654	.025
.5145	352.98	.5614	.025

System: carbon dioxide + decafluorobutane; phases: Liquid, Gas
Property: Critical pressure, kPa (Liquid); method: Extrapolated vapor pressure
Temperature, K	Critical pressure, kPa	uncertainty
308.19	7423	.6
323.2	6845	.6
338.2	6384	.6
352.98	5545	.6

System: carbon dioxide + decafluorobutane; phases: Liquid, Gas
Property: Critical temperature, K (Liquid); method: Obtained by fitting data
Mole fraction of carbon dioxide	Critical temperature, K	uncertainty
.96	308.19	.02
.81	323.2	.02
.69	338.2	.02
.54	352.98	.02
