Measured thermophysical data. Vapor-liquid equilibrium in the production of the ionic liquid, 1-hexyl-3-methylimidazolium bromide ([HMIm][Br]), in acetone
Source: Fluid Phase Equilib., 2014, 10.1016/j.fluid.2013.11.030
Compound 1: 1-hexyl-3-methylimidazolium bromide, C10H19BrN2, purity 98%
Compound 2: acetone, C3H6O, purity 99%
Compound 3: 1-methylimidazole, C4H6N2, purity 99%
Compound 4: 1-bromohexane, C6H13Br, purity 99%

System: acetone; phases: Liquid, Gas
Property: Vapor or sublimation pressure, kPa (Liquid); method: Ebulliometric method (Recirculating still)
Temperature, K	Vapor or sublimation pressure, kPa	uncertainty
329.3	101.325	.5

System: 1-methylimidazole; phases: Liquid, Gas
Property: Vapor or sublimation pressure, kPa (Liquid); method: Ebulliometric method (Recirculating still)
Temperature, K	Vapor or sublimation pressure, kPa	uncertainty
471.6	101.325	.5

System: 1-bromohexane; phases: Liquid, Gas
Property: Vapor or sublimation pressure, kPa (Liquid); method: Ebulliometric method (Recirculating still)
Temperature, K	Vapor or sublimation pressure, kPa	uncertainty
428.5	101.325	.5

System: acetone + 1-bromohexane; phases: Liquid, Gas
Property: Boiling temperature at pressure P, K (Liquid); method: Ebulliometric method (Recirculating still)
Mole fraction of acetone	Pressure, kPa	Boiling temperature at pressure P, K	uncertainty
1	101.325	329.3	.1
.9345	101.325	330.8	.1
.8514	101.325	332.3	.1
.807	101.325	333.2	.1
.7284	101.325	334.6	.1
.6457	101.325	336.4	.1
.5677	101.325	338.6	.1
.459	101.325	342.7	.1
.3704	101.325	350.8	.1
.3177	101.325	355.4	.1
.2781	101.325	359.4	.1
.2402	101.325	364.4	.1
.1939	101.325	372.1	.1
.1692	101.325	376.9	.1
.1567	101.325	380.4	.1
.1109	101.325	386.6	.1
.0922	101.325	395.8	.1
.0561	101.325	404.2	.1
.0465	101.325	409	.1
.0211	101.325	417.7	.1
.0117	101.325	422.1	.1
0	101.325	428.5	.1

System: acetone + 1-bromohexane; phases: Gas, Liquid
Property: Mole fraction of acetone (Gas); method: Index of refraction calibration data
Mole fraction of acetone	Pressure, kPa	Mole fraction of acetone	uncertainty
1	101.325	1	.1
.9345	101.325	.9999	.1
.8514	101.325	.9999	.1
.807	101.325	.9999	.1
.7284	101.325	.9994	.1
.6457	101.325	.9935	.1
.5677	101.325	.9896	.1
.459	101.325	.9823	.1
.3704	101.325	.973	.1
.3177	101.325	.956	.1
.2781	101.325	.9505	.1
.2402	101.325	.9373	.1
.1939	101.325	.9051	.1
.1692	101.325	.8926	.1
.1567	101.325	.8576	.1
.1109	101.325	.8136	.1
.0922	101.325	.721	.1
.0561	101.325	.6045	.1
.0465	101.325	.5375	.1
.0211	101.325	.3331	.1
.0117	101.325	.1904	.1
0	101.325	0	.1

System: acetone + 1-methylimidazole; phases: Liquid, Gas
Property: Boiling temperature at pressure P, K (Liquid); method: Ebulliometric method (Recirculating still)
Mole fraction of acetone	Pressure, kPa	Boiling temperature at pressure P, K	uncertainty
1	101.325	329.3	.1
.9366	101.325	329.8	.1
.8134	101.325	332.2	.1
.7466	101.325	333.9	.1
.6874	101.325	335.5	.1
.5896	101.325	338.7	.1
.5091	101.325	341.8	.1
.4445	101.325	344.4	.1
.3859	101.325	347.9	.1
.314	101.325	353.4	.1
.2323	101.325	363.5	.1
.2065	101.325	369.3	.1
.1208	101.325	390.8	.1
.1045	101.325	399.5	.1
.0798	101.325	409.9	.1
.0576	101.325	422.9	.1
.036	101.325	438.9	.1
.0266	101.325	453.4	.1
.0181	101.325	460	.1
.0143	101.325	464.2	.1
.0076	101.325	467.9	.1
0	101.325	471.6	.1

System: acetone + 1-methylimidazole; phases: Gas, Liquid
Property: Mole fraction of acetone (Gas); method: Index of refraction calibration data
Mole fraction of acetone	Pressure, kPa	Mole fraction of acetone	uncertainty
1	101.325	1	.1
.9366	101.325	.9999	.1
.8134	101.325	.9995	.1
.7466	101.325	.999	.1
.6874	101.325	.9989	.1
.5896	101.325	.9978	.1
.5091	101.325	.9968	.1
.4445	101.325	.9957	.1
.3859	101.325	.9935	.1
.314	101.325	.9913	.1
.2323	101.325	.9793	.1
.2065	101.325	.9661	.1
.1208	101.325	.9157	.1
.1045	101.325	.8875	.1
.0798	101.325	.8577	.1
.0576	101.325	.8116	.1
.036	101.325	.6281	.1
.0266	101.325	.5048	.1
.0181	101.325	.3479	.1
.0143	101.325	.2828	.1
.0076	101.325	.1468	.1
0	101.325	0	.1

System: acetone + 1-hexyl-3-methylimidazolium bromide; phases: Liquid, Gas
Property: Boiling temperature at pressure P, K (Liquid); method: Ebulliometric method (Recirculating still)
Mole fraction of acetone	Pressure, kPa	Boiling temperature at pressure P, K	uncertainty
1	101.325	329.3	.1
.9056	101.325	330.9	.1
.8658	101.325	331.3	.1
.8257	101.325	331.8	.1
.7993	101.325	332.3	.1
.7587	101.325	333.1	.1
.7281	101.325	333.3	.1
.6957	101.325	334.7	.1
.6479	101.325	335.3	.1
.6044	101.325	336.7	.1
.5578	101.325	338.6	.1
.5201	101.325	340.1	.1
.4933	101.325	341.8	.1
.4682	101.325	343.1	.1

System: acetone + 1-hexyl-3-methylimidazolium bromide; phases: Gas, Liquid
Property: Mole fraction of acetone (Gas); method: Index of refraction calibration data
Mole fraction of acetone	Pressure, kPa	Mole fraction of acetone	uncertainty
1	101.325	1	.1
.9056	101.325	1	.1
.8658	101.325	1	.1
.8257	101.325	1	.1
.7993	101.325	1	.1
.7587	101.325	1	.1
.7281	101.325	1	.1
.6957	101.325	1	.1
.6479	101.325	1	.1
.6044	101.325	1	.1
.5578	101.325	1	.1
.5201	101.325	1	.1
.4933	101.325	1	.1
.4682	101.325	1	.1

System: 1-methylimidazole + 1-hexyl-3-methylimidazolium bromide; phases: Liquid, Gas
Property: Boiling temperature at pressure P, K (Liquid); method: Ebulliometric method (Recirculating still)
Mole fraction of 1-methylimidazole	Pressure, kPa	Boiling temperature at pressure P, K	uncertainty
1	101.325	471.6	.1
.9775	101.325	473.3	.1
.9368	101.325	474.2	.1
.92	101.325	474.9	.1
.9038	101.325	475.7	.1
.8755	101.325	476.9	.1
.835	101.325	479.5	.1
.8242	101.325	479.8	.1
.7781	101.325	482.4	.1
.7391	101.325	484.3	.1

System: 1-methylimidazole + 1-hexyl-3-methylimidazolium bromide; phases: Gas, Liquid
Property: Mole fraction of 1-methylimidazole (Gas); method: Index of refraction calibration data
Mole fraction of 1-methylimidazole	Pressure, kPa	Mole fraction of 1-methylimidazole	uncertainty
1	101.325	1	.1
.9775	101.325	1	.1
.9368	101.325	1	.1
.92	101.325	1	.1
.9038	101.325	1	.1
.8755	101.325	1	.1
.835	101.325	1	.1
.8242	101.325	1	.1
.7781	101.325	1	.1
.7391	101.325	1	.1
