Measured thermophysical data. Probing effect of lipophilic butylated hydroxytoluene on anionic surfactant properties for potential food and pharmaceutical applications: Thermo-acoustic and spectroscopic study
Source: Fluid Phase Equilib., 2014, 10.1016/j.fluid.2014.03.032
Compound 1: butylated hydroxytoluene, C15H24O, purity 99%
Compound 2: sodium dodecyl sulfate, C12H25NaO4S, purity 99%
Compound 3: ethanol, C2H6O, purity 99%

System: ethanol + butylated hydroxytoluene + sodium dodecyl sulfate; phases: Liquid
Fixed: Pressure, kPa = 101
Fixed: Amount concentration (molarity), mol/dm3 of butylated hydroxytoluene = .02
Property: Mass density, kg/m3 (Liquid); method: Vibrating tube method
Temperature, K	Amount concentration (molarity), mol/dm3 of sodium dodecyl sulfate	Mass density, kg/m3	uncertainty
298.15	.002	789.446	.004
298.15	.004	789.711	.004
298.15	.006	789.792	.004
298.15	.008	790.623	.004
298.15	.01	791.553	.004
298.15	.012	791.285	.004
298.15	.014	790.709	.004
303.15	.002	785.134	.004
303.15	.004	785.396	.004
303.15	.006	785.465	.004
303.15	.008	786.607	.004
303.15	.01	787.268	.004
303.15	.012	787.369	.004
303.15	.014	786.387	.004
308.15	.002	780.879	.004
308.15	.004	781.249	.004
308.15	.006	781.404	.004
308.15	.008	782.656	.004
308.15	.01	782.742	.004
308.15	.012	782.617	.004
308.15	.014	781.733	.004

System: ethanol + butylated hydroxytoluene + sodium dodecyl sulfate; phases: Liquid
Fixed: Pressure, kPa = 101
Fixed: Amount concentration (molarity), mol/dm3 of butylated hydroxytoluene = .02
Property: Speed of sound, m/s (Liquid); method: Sing-around technique in a fixed-path interferometer
Temperature, K	Amount concentration (molarity), mol/dm3 of sodium dodecyl sulfate	Speed of sound, m/s	uncertainty
298.15	.002	1147.91	.5
298.15	.004	1148.36	.5
298.15	.006	1150.66	.5
298.15	.008	1150.08	.5
298.15	.01	1150.88	.5
298.15	.012	1149.82	.5
298.15	.014	1151.04	.5
303.15	.002	1131.06	.5
303.15	.004	1131.53	.5
303.15	.006	1133.8	.5
303.15	.008	1133.25	.5
303.15	.01	1133.85	.5
303.15	.012	1132.93	.5
303.15	.014	1134.06	.5
308.15	.002	1114.19	.5
308.15	.004	1114.2	.5
308.15	.006	1115.7	.5
308.15	.008	1115.92	.5
308.15	.01	1116.4	.5
308.15	.012	1117.6	.5
308.15	.014	1117.17	.5
