Measured thermophysical data. Group contributionandparachoranalysisofexperimentaldataon densities and surface tension for six ionic liquids with the [PF6] anion
Source: Fluid Phase Equilib., 2015, 10.1016/j.fluid.2014.10.029
Compound 1: 1-methyl-3-pentylimidazolium hexafluorophosphate, C9H17F6N2P, purity 99.9%
Compound 2: 1-heptyl-3-methylimidazolium hexafluorophosphate, C11H21F6N2P, purity 99.9%
Compound 3: 1-nonyl-3-methylimidazolium hexafluorophosphate, C13H25F6N2P, purity 99.9%
Compound 4: 1-butyl-2,3-dimethylimidazolium hexafluorophosphate, C9H17F6N2P, purity 99.9%
Compound 5: 1-butyl-3-methylpyridinium hexafluorophosphate, C10H16F6NP, purity 99.9%
Compound 6: 1-methyl-3-propylimidazolium hexafluorophosphate, C7H13F6N2P, purity 99%

System: 1-methyl-3-pentylimidazolium hexafluorophosphate; phases: Liquid
Fixed: Pressure, kPa = 101.325
Property: Mass density, kg/m3 (Liquid); method: Buoyancy - hydrostatic balance with magnetic suspension - one sinker
Temperature, K	Mass density, kg/m3	uncertainty
267.86	1351.91	.67
273.05	1348.4	.67
283.12	1339.58	.67
288.38	1335.51	.67
292.83	1332.19	.67
298.17	1328.15	.67
303.2	1324.24	.67
308.22	1318.91	.67
313.1	1315.32	.67
317.98	1311.51	.67
323.18	1307.37	.67
328.4	1303.77	.67
333.5	1299.9	.67
338.86	1295.93	.67
342.93	1292.1	.67
348	1288.64	.67
353.25	1284.49	.67
358.27	1281.15	.67
362.73	1277.18	.67

System: 1-methyl-3-pentylimidazolium hexafluorophosphate; phases: Liquid, Air at 1 atmosphere
Property: Surface tension liquid-gas, N/m (Liquid); method: Wilhelmy plate
Temperature, K	Surface tension liquid-gas, N/m	uncertainty
273.2	.04246	.00005
277.73	.04219	.00005
283.17	.04195	.00005
288.28	.04153	.00005
292.81	.04149	.00005
298.19	.04124	.00005
303.12	.04094	.00005
308.14	.04068	.00005
313.06	.0404	.00005
317.95	.04017	.00005
323.2	.03986	.00005
328.3	.03963	.00005
333.52	.03936	.00005
338.6	.0391	.00005
343	.03886	.00005
348.11	.03864	.00005
353.3	.0384	.00005
357.97	.03811	.00005
362.98	.03785	.00005

System: 1-methyl-3-pentylimidazolium hexafluorophosphate; phases: Liquid, Air at 1 atmosphere
Property: Surface tension liquid-gas, N/m (Liquid); method: Ring tensiometer
Temperature, K	Surface tension liquid-gas, N/m	uncertainty
262.89	.04304	.00014
268.06	.04278	.00014
277.78	.04223	.00014
283.1	.04197	.00014
288.29	.04176	.00014
292.81	.04154	.00014
298.2	.04135	.00014
303.11	.04096	.00014
308.16	.04075	.00014
313.06	.04041	.00014
317.98	.04023	.00014
323.19	.04004	.00014
328.37	.03969	.00014
333.51	.03941	.00014
338.58	.03909	.00014
342.99	.0388	.00014
348.07	.03864	.00014
353.27	.03838	.00014
358.34	.0381	.00014

System: 1-heptyl-3-methylimidazolium hexafluorophosphate; phases: Liquid
Fixed: Pressure, kPa = 101.325
Property: Mass density, kg/m3 (Liquid); method: Buoyancy - hydrostatic balance with magnetic suspension - one sinker
Temperature, K	Mass density, kg/m3	uncertainty
292.97	1266.43	.4
298.16	1262.6	.4
303.16	1258.82	.4
308.22	1254.84	.4
313.19	1250.97	.4
318.05	1247.4	.4
323.09	1243.43	.4
328.16	1239.71	.4
333.36	1235.76	.4
337.82	1232.14	.4
343.31	1228.66	.4
348.05	1224.36	.4
352.96	1220.98	.4
357.92	1217.32	.4
364.45	1212.58	.4

System: 1-heptyl-3-methylimidazolium hexafluorophosphate; phases: Liquid, Air at 1 atmosphere
Property: Surface tension liquid-gas, N/m (Liquid); method: Wilhemly plate
Temperature, K	Surface tension liquid-gas, N/m	uncertainty
293.26	.03606	.00007
298.15	.03589	.00007
303.15	.0356	.00007
308.21	.03541	.00007
313.22	.03513	.00007
318.05	.03487	.00007
323.22	.03465	.00007
328.1	.03439	.00007
333.37	.03413	.00007
337.89	.03391	.00007
343.34	.03368	.00007
348.16	.03332	.00007
353.04	.03318	.00007
358.04	.03296	.00007
364.61	.03267	.00007

System: 1-heptyl-3-methylimidazolium hexafluorophosphate; phases: Liquid, Air at 1 atmosphere
Property: Surface tension liquid-gas, N/m (Liquid); method: Ring tensiometer
Temperature, K	Surface tension liquid-gas, N/m	uncertainty
293.23	.03605	.00017
298.15	.03587	.00017
303.13	.0356	.00017
308.2	.03531	.00017
313.26	.03514	.00017
318.08	.03474	.00017
323.21	.03465	.00017
328.18	.0343	.00017
333.37	.03407	.00017
338.05	.03375	.00017
343.31	.0337	.00017
348.26	.03324	.00017
357.99	.03304	.00017
364.54	.03262	.00017

System: 1-nonyl-3-methylimidazolium hexafluorophosphate; phases: Liquid
Fixed: Pressure, kPa = 101.325
Property: Mass density, kg/m3 (Liquid); method: Buoyancy - hydrostatic balance with magnetic suspension - one sinker
Temperature, K	Mass density, kg/m3	uncertainty
293.11	1216.29	.46
298.18	1212.6	.46
303.15	1209.57	.46
308.14	1205.42	.46
313.21	1201.39	.46
318.08	1197.66	.46
323.13	1193.94	.46
328.02	1190.39	.46
332.95	1186.82	.46
338.45	1183.02	.46
343.45	1179.31	.46
348.02	1176.28	.46
352.94	1172.76	.46
358.11	1168.91	.46
365.13	1163.68	.46

System: 1-nonyl-3-methylimidazolium hexafluorophosphate; phases: Liquid, Air at 1 atmosphere
Property: Surface tension liquid-gas, N/m (Liquid); method: Wilhelmy plate
Temperature, K	Surface tension liquid-gas, N/m	uncertainty
288.14	.0332	.00004
293.07	.03296	.00004
298.16	.0327	.00004
303.11	.03248	.00004
308.11	.03227	.00004
313.16	.03199	.00004
318.03	.03176	.00004
323.07	.03151	.00004
328.04	.03125	.00004
332.95	.03099	.00004
338.37	.03075	.00004
343.34	.0305	.00004
347.87	.03023	.00004
352.81	.02998	.00004
357.85	.02976	.00004
365.22	.0294	.00004

System: 1-nonyl-3-methylimidazolium hexafluorophosphate; phases: Liquid, Air at 1 atmosphere
Property: Surface tension liquid-gas, N/m (Liquid); method: Ring tensiometer
Temperature, K	Surface tension liquid-gas, N/m	uncertainty
288.18	.03364	.0007
293.07	.03326	.0007
298.13	.03286	.0007
303.12	.0328	.0007
308.13	.03271	.0007
313.19	.0324	.0007
318.06	.03217	.0007
323.1	.03189	.0007
328	.0317	.0007
332.93	.03143	.0007
338.49	.03111	.0007
343.59	.03088	.0007
347.9	.03057	.0007
352.87	.03032	.0007
358.12	.03014	.0007
365.11	.02971	.0007

System: 1-butyl-2,3-dimethylimidazolium hexafluorophosphate; phases: Liquid, Air at 1 atmosphere
Property: Surface tension liquid-gas, N/m (Liquid); method: Wilhelmy plate
Temperature, K	Surface tension liquid-gas, N/m	uncertainty
298.17	.04442	.000065
313.07	.04373	.000065
323.27	.04316	.000065
333.13	.0426	.000065
338.38	.04238	.000065
343.51	.04213	.000065
348.43	.04189	.000065
353.08	.04168	.000065
358.76	.04141	.000065
364.84	.04111	.000065

System: 1-butyl-3-methylpyridinium hexafluorophosphate; phases: Liquid, Air at 1 atmosphere
Property: Surface tension liquid-gas, N/m (Liquid); method: Wilhelmy plate
Temperature, K	Surface tension liquid-gas, N/m	uncertainty
323.02	.04324	.000065
327.6	.04296	.000065
333.18	.04258	.000065
338.24	.04224	.000065
343.75	.04189	.000065
348.09	.04163	.000065
353.61	.0413	.000065
358.09	.04094	.000065
364.84	.04051	.000065

System: 1-methyl-3-propylimidazolium hexafluorophosphate; phases: Liquid, Air at 1 atmosphere
Property: Surface tension liquid-gas, N/m (Liquid); method: Wilhelmy plate
Temperature, K	Surface tension liquid-gas, N/m	uncertainty
293.21	.04834	.00005
298.2	.04799	.00005
303.01	.04768	.00005
308.2	.04736	.00005
313.17	.04706	.00005
318.07	.04674	.00005
323.11	.0464	.00005
328.25	.04606	.00005
333.45	.04573	.00005
338.46	.04541	.00005
343.3	.04514	.00005
348.25	.04478	.00005
352.68	.0445	.00005
358.24	.04423	.00005
364.96	.04378	.00005

System: 1-methyl-3-propylimidazolium hexafluorophosphate; phases: Liquid, Air at 1 atmosphere
Property: Surface tension liquid-gas, N/m (Liquid); method: Ring tensiometer
Temperature, K	Surface tension liquid-gas, N/m	uncertainty
293.23	.04798	.00044
298.23	.04777	.00044
303.04	.04803	.00044
308.21	.04715	.00044
313.22	.04718	.00044
318.17	.04699	.00044
323.22	.04676	.00044
328.22	.04609	.00044
333.39	.04583	.00044
338.46	.04538	.00044
343.28	.04484	.00044
348.2	.0448	.00044
352.76	.04438	.00044
358.22	.04388	.00044
365.07	.04364	.00044
