Measured thermophysical data. Liquid-liquid equilibria, excess molar volume and deviations of the refractive indices at 298.15 K for mixtures of solvents used in themolybdenum extraction process
Source: Fluid Phase Equilib., 2013, 10.1016/j.fluid.2013.06.013
Compound 1: water, H2O, purity 99.9%
Compound 2: trioctylamine, C24H51N, purity 99.5%
Compound 3: tributyl phosphate, C12H27O4P, purity 99.5%
Compound 4: acetylacetone, C5H8O2, purity 99.9%
Compound 5: trihexyl(tetradecyl)phosphonium chloride, C32H68ClP
Compound 6: trihexyltetradecylphosphonium bis(2,4,4-trimethylpentyl)phosphinate, C48H102O2P2
Compound 7: trihexyltetradecylphosphonium dicyanamide, C34H68N3P
Compound 8: 1-butyl-3-methylimidazolium bis(trifluoromethylsulfonyl)imide, C10H15F6N3O4S2
Compound 9: 1-methyl-3-octylimidazolium tetrafluoroborate, C12H23BF4N2
Compound 10: 1-hexyl-3-methylimidazolium tetrafluoroborate, C10H19BF4N2
Compound 11: 1-butyl-3-methylimidazolium hexafluorophosphate, C8H15F6N2P
Compound 12: 1-ethyl-3-methylimidazolium bis(trifluoromethylsulfonyl)imide, C8H11F6N3O4S2

System: water; phases: Liquid
Fixed: Pressure, kPa = 101.325
Property: Mass density, kg/m3 (Liquid); method: Vibrating tube method
Temperature, K	Mass density, kg/m3	uncertainty
298.15	997.04	.05

System: water; phases: Liquid
Fixed: Pressure, kPa = 101.325
Property: Refractive index (Na D-line) (Liquid); method: Standard Abbe refractometry
Temperature, K	Refractive index (Na D-line)	uncertainty
298.15	1.33249	.00005

System: trioctylamine; phases: Liquid
Fixed: Pressure, kPa = 101.325
Property: Mass density, kg/m3 (Liquid); method: Vibrating tube method
Temperature, K	Mass density, kg/m3	uncertainty
298.15	807.46	.05

System: trioctylamine; phases: Liquid
Fixed: Pressure, kPa = 101.325
Property: Refractive index (Na D-line) (Liquid); method: Standard Abbe refractometry
Temperature, K	Refractive index (Na D-line)	uncertainty
298.15	1.44758	.0001

System: tributyl phosphate; phases: Liquid
Fixed: Pressure, kPa = 101.325
Property: Mass density, kg/m3 (Liquid); method: Vibrating tube method
Temperature, K	Mass density, kg/m3	uncertainty
298.15	972.69	.05

System: tributyl phosphate; phases: Liquid
Fixed: Pressure, kPa = 101.325
Property: Refractive index (Na D-line) (Liquid); method: Standard Abbe refractometry
Temperature, K	Refractive index (Na D-line)	uncertainty
298.15	1.42252	.0001

System: acetylacetone; phases: Liquid
Fixed: Pressure, kPa = 101.325
Property: Mass density, kg/m3 (Liquid); method: Vibrating tube method
Temperature, K	Mass density, kg/m3	uncertainty
298.15	971.07	.05

System: acetylacetone; phases: Liquid
Fixed: Pressure, kPa = 101.325
Property: Refractive index (Na D-line) (Liquid); method: Standard Abbe refractometry
Temperature, K	Refractive index (Na D-line)	uncertainty
298.15	1.4509	.0001

System: trihexyl(tetradecyl)phosphonium chloride; phases: Liquid
Fixed: Pressure, kPa = 101.325
Property: Mass density, kg/m3 (Liquid); method: Vibrating tube method
Temperature, K	Mass density, kg/m3	uncertainty
298.15	891.82	.05

System: trihexyl(tetradecyl)phosphonium chloride; phases: Liquid
Fixed: Pressure, kPa = 101.325
Property: Refractive index (Na D-line) (Liquid); method: Standard Abbe refractometry
Temperature, K	Refractive index (Na D-line)	uncertainty
298.15	1.48175	.0001

System: trihexyltetradecylphosphonium bis(2,4,4-trimethylpentyl)phosphinate; phases: Liquid
Fixed: Pressure, kPa = 101.325
Property: Mass density, kg/m3 (Liquid); method: Vibrating tube method
Temperature, K	Mass density, kg/m3	uncertainty
298.15	886.43	.05

System: trihexyltetradecylphosphonium bis(2,4,4-trimethylpentyl)phosphinate; phases: Liquid
Fixed: Pressure, kPa = 101.325
Property: Refractive index (Na D-line) (Liquid); method: Standard Abbe refractometry
Temperature, K	Refractive index (Na D-line)	uncertainty
298.15	1.47125	.0001

System: trihexyltetradecylphosphonium dicyanamide; phases: Liquid
Fixed: Pressure, kPa = 101.325
Property: Mass density, kg/m3 (Liquid); method: Vibrating tube method
Temperature, K	Mass density, kg/m3	uncertainty
298.15	899.14	.05

System: trihexyltetradecylphosphonium dicyanamide; phases: Liquid
Fixed: Pressure, kPa = 101.325
Property: Refractive index (Na D-line) (Liquid); method: Standard Abbe refractometry
Temperature, K	Refractive index (Na D-line)	uncertainty
298.15	1.48154	.0001

System: 1-butyl-3-methylimidazolium bis(trifluoromethylsulfonyl)imide; phases: Liquid
Fixed: Pressure, kPa = 101.325
Property: Mass density, kg/m3 (Liquid); method: Vibrating tube method
Temperature, K	Mass density, kg/m3	uncertainty
298.15	1436.16	.05

System: 1-butyl-3-methylimidazolium bis(trifluoromethylsulfonyl)imide; phases: Liquid
Fixed: Pressure, kPa = 101.325
Property: Refractive index (Na D-line) (Liquid); method: Standard Abbe refractometry
Temperature, K	Refractive index (Na D-line)	uncertainty
298.15	1.42689	.0001

System: 1-methyl-3-octylimidazolium tetrafluoroborate; phases: Liquid
Fixed: Pressure, kPa = 101.325
Property: Mass density, kg/m3 (Liquid); method: Vibrating tube method
Temperature, K	Mass density, kg/m3	uncertainty
298.15	1101.99	.05

System: 1-methyl-3-octylimidazolium tetrafluoroborate; phases: Liquid
Fixed: Pressure, kPa = 101.325
Property: Refractive index (Na D-line) (Liquid); method: Standard Abbe refractometry
Temperature, K	Refractive index (Na D-line)	uncertainty
298.15	1.43306	.0001

System: 1-hexyl-3-methylimidazolium tetrafluoroborate; phases: Liquid
Fixed: Pressure, kPa = 101.325
Property: Mass density, kg/m3 (Liquid); method: Vibrating tube method
Temperature, K	Mass density, kg/m3	uncertainty
298.15	1144.46	.05

System: 1-hexyl-3-methylimidazolium tetrafluoroborate; phases: Liquid
Fixed: Pressure, kPa = 101.325
Property: Refractive index (Na D-line) (Liquid); method: Standard Abbe refractometry
Temperature, K	Refractive index (Na D-line)	uncertainty
298.15	1.42844	.0001

System: 1-butyl-3-methylimidazolium hexafluorophosphate; phases: Liquid
Fixed: Pressure, kPa = 101.325
Property: Mass density, kg/m3 (Liquid); method: Vibrating tube method
Temperature, K	Mass density, kg/m3	uncertainty
298.15	1366.95	.05

System: 1-butyl-3-methylimidazolium hexafluorophosphate; phases: Liquid
Fixed: Pressure, kPa = 101.325
Property: Refractive index (Na D-line) (Liquid); method: Standard Abbe refractometry
Temperature, K	Refractive index (Na D-line)	uncertainty
298.15	1.40926	.0001

System: 1-ethyl-3-methylimidazolium bis(trifluoromethylsulfonyl)imide; phases: Liquid
Fixed: Pressure, kPa = 101.325
Property: Mass density, kg/m3 (Liquid); method: Vibrating tube method
Temperature, K	Mass density, kg/m3	uncertainty
298.15	1518.86	.05

System: 1-ethyl-3-methylimidazolium bis(trifluoromethylsulfonyl)imide; phases: Liquid
Fixed: Pressure, kPa = 101.325
Property: Refractive index (Na D-line) (Liquid); method: Standard Abbe refractometry
Temperature, K	Refractive index (Na D-line)	uncertainty
298.15	1.42293	.0001

System: acetylacetone + trihexyl(tetradecyl)phosphonium chloride; phases: Liquid
Fixed: Pressure, kPa = 101
Fixed: Temperature, K = 298.15
Property: Mass density, kg/m3 (Liquid); method: Vibrating tube method
Mole fraction of acetylacetone	Mass density, kg/m3	uncertainty
.0586	892.92	.05
.0977	893.66	.05
.1957	895.67	.05
.2949	898.11	.05
.3989	901.25	.05
.4985	905.14	.05
.6092	910.91	.05
.7096	918.02	.05
.8008	926.85	.05
.9036	942.76	.05
.9508	953.8	.05

System: acetylacetone + trihexyl(tetradecyl)phosphonium chloride; phases: Liquid
Fixed: Pressure, kPa = 101
Fixed: Temperature, K = 298.15
Property: Refractive index (Na D-line) (Liquid); method: Standard Abbe refractometry
Mole fraction of acetylacetone	Refractive index (Na D-line)	uncertainty
.0586	1.4811	.0001
.0977	1.481	.0001
.1957	1.481	.0001
.2949	1.4805	.0001
.3989	1.4799	.0001
.4985	1.478	.0001
.6092	1.4759	.0001
.7096	1.4741	.0001
.8008	1.4705	.0001
.9036	1.4633	.0001
.9508	1.458	.0001

System: acetylacetone + trihexyltetradecylphosphonium bis(2,4,4-trimethylpentyl)phosphinate; phases: Liquid
Fixed: Pressure, kPa = 101
Fixed: Temperature, K = 298.15
Property: Mass density, kg/m3 (Liquid); method: Vibrating tube method
Mole fraction of acetylacetone	Mass density, kg/m3	uncertainty
.0517	888.32	.05
.0958	889.43	.05
.2082	892.48	.05
.2986	895.05	.05
.3991	898	.05
.499	901.47	.05
.6013	905.75	.05
.7004	911.47	.05
.7998	919.31	.05
.9	933.94	.05
.95	946.89	.05

System: acetylacetone + trihexyltetradecylphosphonium bis(2,4,4-trimethylpentyl)phosphinate; phases: Liquid
Fixed: Pressure, kPa = 101
Fixed: Temperature, K = 298.15
Property: Refractive index (Na D-line) (Liquid); method: Standard Abbe refractometry
Mole fraction of acetylacetone	Refractive index (Na D-line)	uncertainty
.0517	1.4714	.0001
.0958	1.4721	.0001
.2082	1.4731	.0001
.2986	1.4742	.0001
.3991	1.4751	.0001
.499	1.475	.0001
.6013	1.4753	.0001
.7004	1.474	.0001
.7998	1.4716	.0001
.9	1.4659	.0001
.95	1.4602	.0001

System: acetylacetone + trihexyltetradecylphosphonium dicyanamide; phases: Liquid
Fixed: Pressure, kPa = 101
Fixed: Temperature, K = 298.15
Property: Mass density, kg/m3 (Liquid); method: Vibrating tube method
Mole fraction of acetylacetone	Mass density, kg/m3	uncertainty
.0599	899.94	.05
.113	900.73	.05
.2	902.2	.05
.3143	904.54	.05
.4094	906.97	.05
.5016	909.92	.05
.5967	913.83	.05
.7002	919.76	.05
.8004	928.35	.05
.9	942.61	.05
.9496	953.89	.05

System: acetylacetone + trihexyltetradecylphosphonium dicyanamide; phases: Liquid
Fixed: Pressure, kPa = 101
Fixed: Temperature, K = 298.15
Property: Refractive index (Na D-line) (Liquid); method: Standard Abbe refractometry
Mole fraction of acetylacetone	Refractive index (Na D-line)	uncertainty
.0599	1.481	.0001
.113	1.4808	.0001
.2	1.4801	.0001
.3143	1.4795	.0001
.4094	1.4785	.0001
.5016	1.4773	.0001
.5967	1.4757	.0001
.7002	1.4732	.0001
.8004	1.47	.0001
.9	1.463	.0001
.9496	1.4578	.0001
