Measured thermophysical data. Mesoscale solubilization and critical phenomena in binary and quasi-binary solutions of hydrotropes
Source: Fluid Phase Equilib., 2016, 10.1016/j.fluid.2015.06.030
Compound 1: tert-butanol, C4H10O, purity 99.8%
Compound 2: 2-butanol, C4H10O, purity 99.5%
Compound 3: cyclohexane, C6H12, purity 98%
Compound 4: water, H2O, purity 99.8%
Compound 5: 2,6-lutidine, C7H9N, purity 98%

System: tert-butanol + 2-butanol + water; phases: Liquid
Fixed: Pressure, kPa = 101
Fixed: Mass fraction of 2-butanol = .3355
Fixed: Mass fraction of water = .5969
Property: Viscosity, Pa*s (Liquid); method: dynamic light scattering
Temperature, K	Viscosity, Pa*s	uncertainty
283.15	.00658	.0001974
284.15	.0065	.000195
285.15	.00614	.0001842
286.15	.00598	.0001794
287.15	.00584	.0001752
288.15	.00555	.0001665
289.15	.00536	.0001608
290.15	.00506	.0001518
291.15	.00463	.0001389

System: tert-butanol + 2-butanol + water; phases: Liquid mixture 1, Liquid mixture 2
Fixed: Temperature, K = 295.15
Fixed: Pressure, kPa = 101
Property: Mass fraction of tert-butanol (Liquid mixture 1); method: Titration method
Mass fraction of 2-butanol	Mass fraction of tert-butanol	uncertainty
.18	0	.001
.19	.018	.001
.199	.03	.001
.255	.065	.001
.27	.067	.001
.3	.068	.001
.336	.068	.001
.533	.055	.001
.543	.05	.001
.575	.032	.001
.62	0	.001

System: 2,6-lutidine + cyclohexane + water; phases: Liquid mixture 1, Liquid mixture 2
Fixed: Mass fraction of 2,6-lutidine = .3
Property: Lower consolute temperature, K (Liquid mixture 1); method: Light scattering
Mass fraction of cyclohexane	Lower consolute temperature, K	uncertainty
0	307.39	9.99999999999091E-03
.0002	307.19	9.99999999999091E-03
.0013	305.9	9.99999999999091E-03
.0016	304.97	9.99999999999091E-03
.0032	303.55	9.99999999999091E-03
.0041	302.4	9.99999999999091E-03
