Measured thermophysical data. Isobaric molar heat capacity of 1-ethyl-3-methylimidazolium acetate and 1-hexyl-3-methylimidazolium acetate up to 16 MPa
Source: Fluid Phase Equilib., 2016, 10.1016/j.fluid.2016.06.054
Compound 1: 1-ethyl-3-methylimidazolium acetate, C8H14N2O2, purity 99%
Compound 2: 3-hexyl-1-methylimidazolium acetate, C12H22N2O2, purity 99%

System: 1-ethyl-3-methylimidazolium acetate; phases: Liquid
Property: Molar heat capacity at constant pressure, J/K/mol (Liquid); method: Flow calorimetry
Temperature, K	Pressure, kPa	Molar heat capacity at constant pressure, J/K/mol	uncertainty
303.15	100	325.25	
303.17	4020	324.22	
303.21	8050	322.31	
303.25	12080	321.03	
303.27	16030	319.45	
313.25	100	329.51	
313.37	4110	327.89	
313.42	8060	327.03	
313.45	12060	326.25	
313.49	16090	325.87	
323.16	100	332.22	
323.22	4040	330.61	
323.28	8020	329.03	
323.31	12070	327.19	
323.34	16130	326.51	
333.42	100	337.87	
333.48	4080	336.14	
333.52	8030	334.67	
333.59	12010	333.16	
333.61	16090	331.41	
343.76	100	341.44	
343.82	4020	340.21	
343.85	8030	338.53	
343.92	12050	337.42	
343.98	16050	336.01	
354.29	100	345.18	
354.33	4060	343.89	
354.38	8020	342.02	
354.46	12080	340.87	
354.52	16090	339.03	
363.65	100	348.36	
363.67	4050	346.97	
363.72	8060	345.19	
363.78	12070	344.06	
363.82	16030	342.91	
374.02	100	353.57	
374.09	4070	352.06	
374.11	8010	350.13	
374.15	12150	348.47	
374.18	16110	347.01	
383.41	100	357.23	
383.46	4080	355.56	
383.51	8040	354.44	
383.53	12090	353.71	
383.55	16050	352.62	
393.22	100	362.22	
393.26	4030	361.14	
393.31	8070	359.92	
393.33	12140	358.14	
393.35	16090	356.53	

System: 3-hexyl-1-methylimidazolium acetate; phases: Liquid
Property: Molar heat capacity at constant pressure, J/K/mol (Liquid); method: Flow calorimetry
Temperature, K	Pressure, kPa	Molar heat capacity at constant pressure, J/K/mol	uncertainty
308.3	100	446.98	
308.6	3940	445.51	
308.7	7930	444.39	
308.7	11720	442.98	
308.8	16020	442.23	
317.5	100	451.85	
317.5	4020	450.18	
317.6	8080	449.27	
317.8	12320	448.43	
317.9	16210	447.35	
327.4	100	455.72	
327.5	4030	454.06	
327.7	8190	452.63	
327.8	12480	451.08	
327.8	16220	450.18	
337.2	100	460.35	
337.3	4120	458.97	
337.7	8030	457.41	
337.8	12180	456.32	
338	16110	454.87	
345.9	100	466.57	
346.2	4120	465.32	
346.3	8170	463.82	
346.5	12410	462.14	
346.8	16130	460.75	
355.3	100	472.17	
355.6	4120	470.85	
355.7	8010	469.29	
355.9	12430	468.34	
356.1	16130	466.81	
365.7	100	479.8	
365.8	4110	478.25	
365	7990	476.86	
365.1	12180	475.05	
365.4	16100	473.57	
374	100	485.51	
374.2	4020	483.86	
374.4	8100	482.22	
374.7	12380	480.71	
375	16130	479.24	
383.9	100	491.39	
384.1	4100	490.53	
384.3	7960	489.08	
384.4	12530	487.97	
384.5	16010	486.3	
394.9	100	496.24	
395.1	4070	494.51	
395.1	8360	493.11	
395.2	12770	491.91	
395.4	16400	490.48	
