Measured thermophysical data. Isothermal vapor-liquid equilibrium in CH4/H2/N2 system at a cryogenic temperature range from 100.0 K to 125.0 K
Source: Fluid Phase Equilib., 2014, 10.1016/j.fluid.2014.01.002
Compound 1: methane, CH4, purity 99.99%
Compound 2: hydrogen, H2, purity 99.999%
Compound 3: nitrogen, N2, purity 99.999%

System: methane + hydrogen; phases: Gas, Liquid
Property: Mole fraction of hydrogen (Gas); method: Chromatography
Mole fraction of hydrogen	Temperature, K	Mole fraction of hydrogen	uncertainty
.0181	120.5	.8796	.011
.0079	120.5	.7847	.011
.0067	120.5	.7553	.011
.0047	120.5	.6664	.011
.003	120.5	.529	.011
.0224	115.7	.9678	.011
.0117	115.7	.9625	.011
.0101	115.7	.9444	.011
.0206	110.5	.9777	.011
.0103	110.5	.9676	.011
.009	110.5	.9675	.011
.0037	110.5	.7479	.011
.0023	110.5	.6757	.011
.0139	105.2	.9794	.011
.0086	105.2	.9703	.011
.0046	105.2	.9554	.011
.0034	105.2	.9495	.011
.0026	105.2	.9431	.011
.0131	100.1	.9832	.011
.0065	100.1	.9762	.011
.003	100.1	.9565	.011
.0023	100.1	.9467	.011
.0018	100.1	.932	.011

System: methane + hydrogen; phases: Liquid, Gas
Property: Vapor or sublimation pressure, kPa (Liquid); method: Closed cell (Static) method
Temperature, K	Mole fraction of hydrogen	Vapor or sublimation pressure, kPa	uncertainty
120.5	.0181	1771	2.5
120.5	.0079	947	2.5
120.5	.0067	806	2.5
120.5	.0047	641	2.5
120.5	.003	480	2.5
115.7	.0224	2272	2.5
115.7	.0117	1207	2.5
115.7	.0101	1154	2.5
110.5	.0206	2127	2.5
110.5	.0103	1102	2.5
110.5	.009	1048	2.5
110.5	.0037	485	2.5
110.5	.0023	327	2.5
105.2	.0139	1467	2.5
105.2	.0086	1011	2.5
105.2	.0046	568	2.5
105.2	.0034	428	2.5
105.2	.0026	344	2.5
100.1	.0131	1333	2.5
100.1	.0065	863	2.5
100.1	.003	383	2.5
100.1	.0023	304	2.5
100.1	.0018	237	2.5
100.1	.0018	237	2.5

System: methane + hydrogen + nitrogen; phases: Liquid, Gas
Property: Mole fraction of nitrogen (Liquid); method: Chromatography
Property: Mole fraction of hydrogen (Gas); method: Chromatography
Property: Mole fraction of nitrogen (Gas); method: Chromatography
Temperature, K	Pressure, kPa	Mole fraction of hydrogen	Mole fraction of nitrogen	uncertainty	Mole fraction of hydrogen	uncertainty	Mole fraction of nitrogen	uncertainty
125	1.213	.0078	.0976	.011	.5645	.011	.3933	.011
120	1.055	.0071	.0996	.011	.595	.011	.3679	.011
120	1.657	.015	.047	.011	.8374	.011	.1119	.011
120	1.783	.0174	.0492	.011	.8673	.011	.1051	.011
120	2.191	.0222	.0973	.011	.7757	.011	.1622	.011
120	2.752	.03	.0476	.011	.8825	.011	.083	.011
120	3.059	.0342	.0964	.011	.8178	.011	.1513	.011
120	3.207	.0354	.0485	.011	.9096	.011	.0647	.011
120	3.623	.04	.0974	.011	.8403	.011	.1317	.011
120	4.114	.0416	.0487	.011	.9087	.011	.0603	.011
115	.919	.0065	.0975	.011	.6319	.011	.3373	.011
125	1.838	.0178	.0461	.011	.8246	.011	.1196	.011
115	1.004	.0075	.0981	.011	.641	.011	.314	.011
115	1.513	.0145	.0474	.011	.873	.011	.0981	.011
115	1.632	.0159	.0495	.011	.8841	.011	.0934	.011
115	2.003	.02	.0976	.011	.8282	.011	.15	.011
115	2.23	.0227	.0985	.011	.8417	.011	.138	.011
115	2.566	.0297	.0527	.011	.88	.011	.0774	.011
115	2.846	.0312	.0973	.011	.8404	.011	.1347	.011
115	2.996	.0329	.0486	.011	.9197	.011	.0583	.011
115	3.39	.0372	.0989	.011	.8678	.011	.1142	.011
115	3.866	.0416	.0487	.011	.9284	.011	.0519	.011
125	1.953	.0188	.0483	.011	.8531	.011	.1139	.011
110	.799	.0059	.0981	.011	.6678	.011	.3034	.011
110	.873	.0068	.0975	.011	.6885	.011	.2842	.011
110	1.5	.0146	.0474	.011	.8975	.011	.0836	.011
110	1.842	.0181	.0973	.011	.8287	.011	.1536	.011
110	2.061	.0208	.0982	.011	.8563	.011	.124	.011
110	2.397	.0251	.0489	.011	.8973	.011	.0705	.011
110	2.649	.0286	.0981	.011	.8452	.011	.1321	.011
110	2.807	.0316	.0537	.011	.9316	.011	.0517	.011
110	3.171	.0338	.0998	.011	.8742	.011	.1059	.011
110	3.623	.0381	.0507	.011	.9381	.011	.0455	.011
125	2.404	.0241	.0961	.011	.7673	.011	.183	.011
105	.622	.005	.0519	.011	.8185	.011	.1529	.011
105	.693	.0053	.0981	.011	.7202	.011	.2571	.011
105	.766	.0061	.098	.011	.7425	.011	.235	.011
105	1.212	.0095	.0482	.011	.9036	.011	.0789	.011
105	1.261	.0112	.0486	.011	.9033	.011	.0758	.011
105	1.699	.0166	.0987	.011	.8605	.011	.1224	.011
105	1.907	.0189	.099	.011	.88	.011	.1048	.011
105	2.243	.0231	.0502	.011	.8982	.011	.0667	.011
105	2.465	.0257	.0998	.011	.8699	.011	.1082	.011
105	2.962	.0307	.1002	.011	.9011	.011	.0881	.011
125	2.634	.027	.0971	.011	.7853	.011	.1842	.011
105	3.4	.0309	.0535	.011	.9378	.011	.0421	.011
100	.606	.0047	.0981	.011	.7557	.011	.225	.011
100	.671	.0054	.0973	.011	.7759	.011	.2049	.011
100	1.149	.0095	.0482	.011	.9172	.011	.0666	.011
100	1.566	.015	.099	.011	.8742	.011	.1118	.011
100	2.097	.0205	.0505	.011	.9269	.011	.0557	.011
100	2.298	.0234	.1013	.011	.888	.011	.0949	.011
100	2.459	.0257	.0547	.011	.9531	.011	.0357	.011
100	2.765	.0278	.1021	.011	.908	.011	.081	.011
100	3.189	.032	.0536	.011	.9375	.011	.0423	.011
125	2.951	.0311	.0477	.011	.8775	.011	.0634	.011
125	3.432	.0347	.0466	.011	.8803	.011	.0807	.011
125	3.881	.0397	.0949	.011	.813	.011	.1569	.011
125	4.379	.0444	.0467	.011	.9016	.011	.0568	.011
