Measured thermophysical data. LLE for (water + ionic liquid) binary systems using [Cxmim][BF4] (x = 6, 8) ionic liquids
Source: Fluid Phase Equilib., 2010, 10.1016/j.fluid.2010.05.003
Compound 1: 1-hexyl-3-methylimidazolium tetrafluoroborate, C10H19BF4N2
Compound 2: 1-methyl-3-octylimidazolium tetrafluoroborate, C12H23BF4N2
Compound 3: water, H2O, purity 99.8%

System: water + 1-hexyl-3-methylimidazolium tetrafluoroborate; phases: Liquid mixture 1, Liquid mixture 2
Property: Mole fraction of 1-hexyl-3-methylimidazolium tetrafluoroborate (Liquid mixture 1); method: Water mass boiled off
Temperature, K	Pressure, kPa	Mole fraction of 1-hexyl-3-methylimidazolium tetrafluoroborate	uncertainty
278.15	101.325	.8848	.00097328
283.15	101.325	.8731	.00096041
288.15	101.325	.8588	.00094468
293.15	101.325	.8487	.00093357
296.15	101.325	.8369	.00092059
298.15	101.325	.8299	.00091289
303.15	101.325	.8158	.00089738
308.15	101.325	.8023	.00088253
313.15	101.325	.7872	.00086592
318.15	101.325	.771	.0008481
323.15	101.325	.755	.0008305
328.15	101.325	.731	.0008041
333.15	101.325	.69	.000759

System: water + 1-hexyl-3-methylimidazolium tetrafluoroborate; phases: Liquid mixture 2, Liquid mixture 1
Property: Mole fraction of 1-hexyl-3-methylimidazolium tetrafluoroborate (Liquid mixture 2); method: Water mass boiled off
Temperature, K	Pressure, kPa	Mole fraction of 1-hexyl-3-methylimidazolium tetrafluoroborate	uncertainty
278.15	101.325	.8848	.00097328
283.15	101.325	.8731	.00096041
288.15	101.325	.8588	.00094468
293.15	101.325	.8487	.00093357
296.15	101.325	.8369	.00092059
298.15	101.325	.8299	.00091289
303.15	101.325	.8158	.00089738
308.15	101.325	.8023	.00088253
313.15	101.325	.7872	.00086592
318.15	101.325	.771	.0008481
323.15	101.325	.755	.0008305
328.15	101.325	.731	.0008041
333.15	101.325	.69	.000759

System: water + 1-methyl-3-octylimidazolium tetrafluoroborate; phases: Liquid mixture 1, Liquid mixture 2
Property: Mole fraction of 1-methyl-3-octylimidazolium tetrafluoroborate (Liquid mixture 1); method: Water mass boiled off
Temperature, K	Pressure, kPa	Mole fraction of 1-methyl-3-octylimidazolium tetrafluoroborate	uncertainty
278.15	101.325	.903	.0009933
283.15	101.325	.8958	.00098538
288.15	101.325	.8873	.00097603
293.15	101.325	.8821	.00097031
296.15	101.325	.8757	.00096327
298.15	101.325	.8712	.00095832
303.15	101.325	.8619	.00094809
308.15	101.325	.8512	.00093632
313.15	101.325	.8403	.00092433
318.15	101.325	.822	.0009042
323.15	101.325	.797	.0008767
328.15	101.325	.77	.000847
333.15	101.325	.764	.0008404
338.15	101.325	.74	.000814
340.15	101.325	.7	.00077

System: water + 1-methyl-3-octylimidazolium tetrafluoroborate; phases: Liquid mixture 2, Liquid mixture 1
Property: Mole fraction of 1-methyl-3-octylimidazolium tetrafluoroborate (Liquid mixture 2); method: Water mass boiled off
Temperature, K	Pressure, kPa	Mole fraction of 1-methyl-3-octylimidazolium tetrafluoroborate	uncertainty
278.15	101.325	.0247	.00002717
283.15	101.325	.0217	.00002387
288.15	101.325	.02	.000022
293.15	101.325	.0166	.00001826
296.15	101.325	.0173	.00001903
298.15	101.325	.0178	.00001958
303.15	101.325	.0207	.00002277
308.15	101.325	.0226	.00002486
313.15	101.325	.0268	.00002948
318.15	101.325	.038	.0000418
323.15	101.325	.071	.0000781
328.15	101.325	.15	.000165
333.15	101.325	.161	.0001771
338.15	101.325	.201	.0002211
340.15	101.325	.33	.000363
