Measured thermophysical data. Solubility of hydrofluorocarbons in aromatic solvents and alcohols: Experimental data and modeling with CPA EoS
Source: Fluid Phase Equilib., 2013, 10.1016/j.fluid.2012.09.013
Compound 1: benzene, C6H6, purity 99.5%
Compound 2: phenylmethane, C7H8, purity 99.99%
Compound 3: 1,3-xylene, C8H10, purity 99%
Compound 4: benzene, 1,3,5-trimethyl-, C9H12, purity 99%
Compound 5: tetrafluoromethane, CF4, purity 99%
Compound 6: R-41, CH3F, purity 99%
Compound 7: freon 32, CH2F2, purity 99%
Compound 8: fluoroform, CHF3, purity 99%

System: benzene + tetrafluoromethane; phases: Liquid, Gas
Fixed: Pressure, kPa = 101.325
Property: Boiling temperature at pressure P, K (Liquid); method: Gas Burette
Mole fraction of tetrafluoromethane	Boiling temperature at pressure P, K	uncertainty
.000551	288.13	.02
.00054	290.71	.02
.000531	293.16	.02
.000516	295.69	.02
.000491	298.46	.02
.000479	300.67	.02
.000458	303.27	.02
.000449	305.69	.02
.000425	308.24	.02

System: benzene + fluoroform; phases: Liquid, Gas
Fixed: Pressure, kPa = 101.325
Property: Boiling temperature at pressure P, K (Liquid); method: Gas Burette
Mole fraction of fluoroform	Boiling temperature at pressure P, K	uncertainty
.0073	288.23	.02
.0067	290.73	.02
.00617	293.35	.02
.00595	295.7	.02
.00545	298.19	.02
.00524	300.68	.02
.00494	303.21	.02
.00475	305.71	.02
.00451	308.17	.02

System: benzene + freon 32; phases: Liquid, Gas
Fixed: Pressure, kPa = 101.325
Property: Boiling temperature at pressure P, K (Liquid); method: Gas Burette
Mole fraction of freon 32	Boiling temperature at pressure P, K	uncertainty
.01798	288.1	.02
.01726	290.71	.02
.01623	293.45	.02
.01575	295.7	.02
.01538	298.19	.02
.01477	300.7	.02
.01415	303.23	.02
.01341	305.75	.02
.01286	308.24	.02

System: benzene + R-41; phases: Liquid, Gas
Fixed: Pressure, kPa = 101.325
Property: Boiling temperature at pressure P, K (Liquid); method: Gas Burette
Mole fraction of R-41	Boiling temperature at pressure P, K	uncertainty
.01611	288.15	.02
.01531	290.63	.02
.01464	293.11	.02
.01388	295.65	.02
.01307	298.36	.02
.01255	300.66	.02
.01233	303.17	.02
.01208	305.65	.02
.01182	308.15	.02

System: tetrafluoromethane + phenylmethane; phases: Liquid, Gas
Fixed: Pressure, kPa = 101.325
Property: Boiling temperature at pressure P, K (Liquid); method: Gas Burette
Mole fraction of tetrafluoromethane	Boiling temperature at pressure P, K	uncertainty
.000709	288.17	.02
.000687	290.66	.02
.000681	293.45	.02
.000671	295.69	.02
.000661	298.25	.02
.000671	300.65	.02
.000665	303.17	.02
.000645	305.66	.02
.000651	308.21	.02

System: fluoroform + phenylmethane; phases: Liquid, Gas
Fixed: Pressure, kPa = 101.325
Property: Boiling temperature at pressure P, K (Liquid); method: Gas Burette
Mole fraction of fluoroform	Boiling temperature at pressure P, K	uncertainty
.00849	288.23	.02
.00794	290.71	.02
.00765	293.51	.02
.00725	295.75	.02
.00709	298.2	.02
.0069	300.66	.02
.00669	303.25	.02
.00639	305.67	.02
.00608	308.21	.02

System: freon 32 + phenylmethane; phases: Liquid, Gas
Fixed: Pressure, kPa = 101.325
Property: Boiling temperature at pressure P, K (Liquid); method: Gas Burette
Mole fraction of freon 32	Boiling temperature at pressure P, K	uncertainty
.02012	288.11	.02
.01941	290.71	.02
.01897	293.36	.02
.01809	295.65	.02
.01738	298.21	.02
.01679	300.71	.02
.01605	303.26	.02
.0156	305.73	.02
.01504	308.25	.02

System: phenylmethane + R-41; phases: Liquid, Gas
Fixed: Pressure, kPa = 101.325
Property: Boiling temperature at pressure P, K (Liquid); method: Gas Burette
Mole fraction of R-41	Boiling temperature at pressure P, K	uncertainty
.01851	288.2	.02
.01808	290.7	.02
.01758	293.21	.02
.01709	295.74	.02
.01646	298.15	.02
.01584	300.71	.02
.01513	303.13	.02
.01467	305.65	.02
.01385	308.23	.02

System: tetrafluoromethane + 1,3-xylene; phases: Liquid, Gas
Fixed: Pressure, kPa = 101.325
Property: Boiling temperature at pressure P, K (Liquid); method: Gas Burette
Mole fraction of tetrafluoromethane	Boiling temperature at pressure P, K	uncertainty
.000793	288.21	.02
.000785	290.65	.02
.000781	293.45	.02
.000778	295.85	.02
.000752	298.21	.02
.000763	300.65	.02
.000774	303.19	.02
.000768	305.67	.02
.000771	308.24	.02

System: fluoroform + 1,3-xylene; phases: Liquid, Gas
Fixed: Pressure, kPa = 101.325
Property: Boiling temperature at pressure P, K (Liquid); method: Gas Burette
Mole fraction of fluoroform	Boiling temperature at pressure P, K	uncertainty
.000973	288.21	.02
.000954	290.73	.02
.000927	293.46	.02
.000884	295.83	.02
.000859	298.2	.02
.000829	300.69	.02
.000794	303.24	.02
.000754	305.74	.02
.000704	308.23	.02

System: freon 32 + 1,3-xylene; phases: Liquid, Gas
Fixed: Pressure, kPa = 101.325
Property: Boiling temperature at pressure P, K (Liquid); method: Gas Burette
Mole fraction of freon 32	Boiling temperature at pressure P, K	uncertainty
.02482	288.23	.02
.02306	290.68	.02
.02204	293.36	.02
.02135	295.65	.02
.02067	298.21	.02
.01918	300.69	.02
.01866	303.24	.02
.01782	305.71	.02
.0173	308.25	.02

System: 1,3-xylene + R-41; phases: Liquid, Gas
Fixed: Pressure, kPa = 101.325
Property: Boiling temperature at pressure P, K (Liquid); method: Gas Burette
Mole fraction of R-41	Boiling temperature at pressure P, K	uncertainty
.01994	288.23	.02
.01914	290.7	.02
.01844	293.35	.02
.01792	295.83	.02
.01744	298.15	.02
.01669	300.64	.02
.01608	303.15	.02
.01582	305.66	.02
.01494	308.23	.02

System: tetrafluoromethane + benzene, 1,3,5-trimethyl-; phases: Liquid, Gas
Fixed: Pressure, kPa = 101.325
Property: Boiling temperature at pressure P, K (Liquid); method: Gas Burette
Mole fraction of tetrafluoromethane	Boiling temperature at pressure P, K	uncertainty
.000866	288.17	.02
.000862	290.69	.02
.00086	293.27	.02
.000851	295.65	.02
.000835	298.36	.02
.000832	300.68	.02
.000832	303.27	.02
.000831	305.71	.02
.000827	308.23	.02

System: fluoroform + benzene, 1,3,5-trimethyl-; phases: Liquid, Gas
Fixed: Pressure, kPa = 101.325
Property: Boiling temperature at pressure P, K (Liquid); method: Gas Burette
Mole fraction of fluoroform	Boiling temperature at pressure P, K	uncertainty
.0104	288.24	.02
.01005	290.7	.02
.00982	293.46	.02
.00947	295.85	.02
.00896	298.19	.02
.00881	300.71	.02
.00845	303.25	.02
.00789	305.73	.02
.00752	308.23	.02

System: freon 32 + benzene, 1,3,5-trimethyl-; phases: Liquid, Gas
Fixed: Pressure, kPa = 101.325
Property: Boiling temperature at pressure P, K (Liquid); method: Gas Burette
Mole fraction of freon 32	Boiling temperature at pressure P, K	uncertainty
.02824	288.45	.02
.02782	290.69	.02
.02673	293.35	.02
.02568	295.71	.02
.02478	298.21	.02
.02323	300.69	.02
.02239	303.25	.02
.02129	305.71	.02
.02047	308.23	.02

System: benzene, 1,3,5-trimethyl- + R-41; phases: Liquid, Gas
Fixed: Pressure, kPa = 101.325
Property: Boiling temperature at pressure P, K (Liquid); method: Gas Burette
Mole fraction of R-41	Boiling temperature at pressure P, K	uncertainty
.02199	288.23	.02
.02073	290.73	.02
.02011	293.19	.02
.019	295.83	.02
.01858	298.15	.02
.01789	300.71	.02
.01724	303.2	.02
.0165	305.69	.02
.01571	308.23	.02
