Measured thermophysical data. Physical data for a process to separate krypton from air by selective absorption in an ionic liquid
Source: Fluid Phase Equilib., 2015, 10.1016/j.fluid.2015.06.037
Compound 1: krypton, Kr, purity 99.9%
Compound 2: oxygen, O2, purity 99.9%
Compound 3: trihexyltetradecylphosphonium bis(2,4,4-trimethylpentyl)phosphinate, C48H102O2P2, purity 95%
Compound 4: 1-butyl-3-methylimidazolium acetate, C10H18N2O2, purity 98%
Compound 5: water, H2O
Compound 6: xenon, Xe
Compound 7: argon, Ar
Compound 8: nitrogen, N2
Compound 9: methane, CH4

System: nitrogen + trihexyltetradecylphosphonium bis(2,4,4-trimethylpentyl)phosphinate; phases: Liquid, Gas
Property: Mole fraction of nitrogen (Liquid); method: pressure change on solution
Temperature, K	Pressure, kPa	Mole fraction of nitrogen	uncertainty
313	2100	.103	.00515
314	3000	.143	.00715
313	4700	.205	.01025
333	2240	.109	.00545
332	3200	.15	.0075
332	5030	.215	.01075
353	1540	.074	.0037
351	2390	.111	.00555
352	3400	.155	.00775
351	5370	.22	.011

System: oxygen + trihexyltetradecylphosphonium bis(2,4,4-trimethylpentyl)phosphinate; phases: Liquid, Gas
Property: Mole fraction of oxygen (Liquid); method: pressure change on solution
Temperature, K	Pressure, kPa	Mole fraction of oxygen	uncertainty
313	820	.053	.00265
314	1240	.078	.0039
313	2110	.13	.0065
313	3140	.181	.00905
313	3860	.213	.01065
333	870	.055	.00275
333	1320	.079	.00395
333	2250	.135	.00675
333	3360	.189	.00945
334	4160	.217	.01085
333	4760	.24	.012
334	5120	.271	.01355
352	930	.056	.0028
352	1400	.08	.004
352	2390	.139	.00695
353	3580	.195	.00975
352	4420	.227	.01135
354	5500	.27	.0135

System: krypton + trihexyltetradecylphosphonium bis(2,4,4-trimethylpentyl)phosphinate; phases: Liquid, Gas
Property: Mole fraction of krypton (Liquid); method: pressure change on solution
Temperature, K	Pressure, kPa	Mole fraction of krypton	uncertainty
312	1320	.185	.00925
314	2030	.252	.0126
313	2880	.328	.0164
313	4210	.416	.0208
333	1430	.18	.009
334	2200	.241	.01205
334	3110	.318	.0159
333	4630	.399	.01995
351	4630	.399	.01995
353	1520	.181	.00905
353	2350	.242	.0121
353	3370	.318	.0159

System: xenon + trihexyltetradecylphosphonium bis(2,4,4-trimethylpentyl)phosphinate; phases: Liquid, Gas
Property: Mole fraction of xenon (Liquid); method: pressure change on solution
Temperature, K	Pressure, kPa	Mole fraction of xenon	uncertainty
313	100	.053	.00265
313	170	.084	.0042
313	290	.14	.007
313	430	.194	.0097
314	580	.247	.01235
313	1230	.42	.021
313	1470	.489	.02445
314	2020	.558	.0279
333	120	.048	.0024
332	190	.077	.00385
333	330	.129	.00645
333	490	.179	.00895
331	660	.23	.0115
333	1430	.393	.01965
331	1690	.465	.02325
333	2320	.533	.02665
351	130	.046	.0023
351	210	.073	.00365
350	370	.123	.00615
352	550	.167	.00835
352	730	.217	.01085
353	1600	.37	.0185
352	2610	.51	.0255

System: argon + trihexyltetradecylphosphonium bis(2,4,4-trimethylpentyl)phosphinate; phases: Liquid, Gas
Property: Mole fraction of argon (Liquid); method: pressure change on solution
Temperature, K	Pressure, kPa	Mole fraction of argon	uncertainty
314	920	.067	.00335
313	1360	.097	.00485
313	2060	.14	.007
313	3040	.193	.00965
313	4590	.264	.0132
333	980	.069	.00345
332	1450	.099	.00495
333	2200	.146	.0073
334	3260	.198	.0099
333	4920	.273	.01365
353	1030	.073	.00365
354	1550	.103	.00515
353	2340	.15	.0075
354	3480	.202	.0101
353	5230	.281	.01405

System: water + oxygen + trihexyltetradecylphosphonium bis(2,4,4-trimethylpentyl)phosphinate; phases: Liquid, Gas
Property: Mole fraction of oxygen (Liquid); method: pressure change on solution
Solvent: Mass fraction of water	Temperature, K	Pressure, kPa	Mole fraction of oxygen	uncertainty
.05	299	1370	.0268	.00134
.05	299	2120	.0411	.002055
.05	299	3260	.0625	.003125
.05	299	4250	.0814	.00407
.05	313	1440	.027	.00135
.05	314	2240	.0416	.00208
.05	313	3440	.0632	.00316
.05	313	4510	.0802	.00401
.05	324	1500	.0271	.001355
.05	323	2320	.0414	.00207
.05	324	3580	.0636	.00318
.05	323	4680	.0816	.00408
.1	299	1040	.0112	.00056
.1	299	1570	.0165	.000825
.1	299	2250	.0237	.001185
.1	298	3530	.0368	.00184
.1	313	1100	.0114	.00057
.1	313	1650	.0168	.00084
.1	313	2380	.0242	.00121
.1	313	3740	.0378	.00189
.1	323	1130	.0113	.000565
.1	323	1710	.0169	.000845
.1	323	2460	.0243	.001215
.1	323	3870	.0377	.001885
.2	298	690	.031	.00155
.2	299	1050	.0455	.002275
.2	298	1560	.0652	.00326
.2	299	2390	.1011	.005055
.2	313	730	.0306	.00153
.2	313	1100	.0465	.002325
.2	313	1640	.0658	.00329
.2	313	2520	.0991	.004955
.2	323	750	.0313	.001565
.2	323	1140	.0469	.002345
.2	323	1700	.0679	.003395
.2	323	2610	.1001	.005005
.5	299	650	.0356	.00178
.5	299	980	.0513	.002565
.5	299	1350	.0709	.003545
.5	299	1850	.0981	.004905
.5	313	680	.035	.00175
.5	314	1040	.0501	.002505
.5	313	1430	.0688	.00344
.5	313	1970	.096	.0048
.5	323	710	.0343	.001715
.5	324	1090	.0494	.00247
.5	323	1490	.0681	.003405
.5	323	2040	.0956	.00478

System: krypton + water + trihexyltetradecylphosphonium bis(2,4,4-trimethylpentyl)phosphinate; phases: Liquid, Gas
Property: Mole fraction of krypton (Liquid); method: pressure change on solution
Solvent: Mass fraction of water	Temperature, K	Pressure, kPa	Mole fraction of krypton	uncertainty
.05	299	1470	.0783	.003915
.05	299	1790	.0947	.004735
.05	299	2550	.1281	.006405
.05	299	3170	.1526	.00763
.05	314	1570	.075	.00375
.05	313	1910	.0909	.004545
.05	314	2740	.1232	.00616
.05	314	3410	.1468	.00734
.05	323	1640	.0741	.003705
.05	323	1990	.0896	.00448
.05	324	2850	.1224	.00612
.05	324	3560	.1457	.007285
.1	299	620	.0195	.000975
.1	300	1270	.0388	.00194
.1	299	2000	.0602	.00301
.1	299	2950	.0864	.00432
.1	313	660	.0186	.00093
.1	313	1350	.0377	.001885
.1	314	2130	.0575	.002875
.1	313	3140	.0841	.004205
.1	323	690	.0182	.00091
.1	323	1400	.0366	.00183
.1	324	2210	.057	.00285
.1	323	3260	.0825	.004125
.2	298	360	.0363	.001815
.2	299	880	.0883	.004415
.2	299	1360	.1299	.006495
.2	299	1930	.173	.00865
.2	313	380	.0354	.00177
.2	313	930	.085	.00425
.2	313	1440	.1253	.006265
.2	313	2040	.168	.0084
.2	323	390	.0338	.00169
.2	323	970	.0828	.00414
.2	323	1490	.123	.00615
.2	323	2120	.1656	.00828
.5	299	700	.0153	.000765
.5	299	993	.021	.00105
.5	299	1431	.03	.0015
.5	299	2091	.0395	.001975
.5	313	737	.0155	.000775
.5	313	1043	.0219	.001095
.5	313	1507	.0311	.001555
.5	314	2201	.0419	.002095
.5	323	763	.0154	.00077
.5	323	1080	.0215	.001075
.5	323	1558	.0313	.001565
.5	323	2275	.0424	.00212

System: methane + 1-butyl-3-methylimidazolium acetate + trihexyltetradecylphosphonium bis(2,4,4-trimethylpentyl)phosphinate; phases: Liquid, Gas
Property: Mole fraction of methane (Liquid); method: pressure change on absorption
Solvent: Mass fraction of 1-butyl-3-methylimidazolium acetate	Temperature, K	Pressure, kPa	Mole fraction of methane	uncertainty
.2	299	611	.043	.00215
.2	299	946	.066	.0033
.2	299	1438	.098	.0049
.2	299	2931	.185	.00925
.2	313	646	.042	.0021
.2	314	1001	.064	.0032
.2	313	1523	.095	.00475
.2	313	3106	.181	.00905
.2	323	669	.041	.00205
.2	323	1034	.063	.00315
.2	323	1578	.094	.0047
.2	323	3230	.181	.00905
.5	299	742	.03	.0015
.5	299	1099	.043	.00215
.5	299	1526	.06	.003
.5	299	2054	.078	.0039
.5	313	782	.03	.0015
.5	313	1161	.042	.0021
.5	313	1618	.059	.00295
.5	313	2169	.079	.00395
.5	323	813	.029	.00145
.5	323	1205	.042	.0021
.5	323	1682	.058	.0029
.5	323	2256	.078	.0039
1	299	1353	.025	.00125
1	299	1953	.036	.0018
1	300	2774	.052	.0026
1	299	3740	.066	.0033
1	313	1427	.026	.0013
1	314	2063	.038	.0019
1	313	2931	.052	.0026
1	313	3960	.068	.0034
