Measured thermophysical data. Investigating thermodynamic properties of LiCl in amide - water mixtures with e-increasing and e-decreasing solvent at 298.15K
Source: Fluid Phase Equilib., 2014, 10.1016/j.fluid.2014.08.026
Compound 1: lithium chloride, ClLi, purity 99%
Compound 2: urea, CH4N2O, purity 99%
Compound 3: N-methylformamide, C2H5NO, purity 99%
Compound 4: N,N-dimethylformamide, C3H7NO, purity 99.5%
Compound 5: N,N-dimethylacetamide, C4H9NO, purity 99.5%
Compound 6: water, H2O, purity 99.9%

System: urea + water; phases: Liquid
Fixed: Pressure, kPa = 101
Fixed: Temperature, K = 298.15
Property: Mass density, kg/m3 (Liquid); method: Vibrating tube method
Mass fraction of urea	Mass density, kg/m3	uncertainty
0	997.03	.05
.1	1023.91	.05
.2	1051.41	.05
.3	1079.47	.05
.4	1108.53	.05

System: urea + water; phases: Liquid
Fixed: Pressure, kPa = 100
Fixed: Temperature, K = 298.15
Fixed: Frequency, MHz = 0.01
Property: Relative permittivity at various frequencies (Liquid); method: Dielectric constant meter
Mass fraction of urea	Relative permittivity at various frequencies	uncertainty
0	78.38	1.5676
.1	83.74	1.6748
.2	87.92	1.7584
.3	91.75	1.835
.4	95.67	1.9134

System: N-methylformamide + water; phases: Liquid
Fixed: Pressure, kPa = 101
Fixed: Temperature, K = 298.15
Property: Mass density, kg/m3 (Liquid); method: Vibrating tube method
Mass fraction of N-methylformamide	Mass density, kg/m3	uncertainty
.1	1001.47	.05
.2	1006.05	.05
.3	1010.26	.05
.4	1013.65	.05

System: N-methylformamide + water; phases: Liquid
Fixed: Pressure, kPa = 100
Fixed: Temperature, K = 298.15
Fixed: Frequency, MHz = 0.01
Property: Relative permittivity at various frequencies (Liquid); method: Dielectric constant meter
Mass fraction of N-methylformamide	Relative permittivity at various frequencies	uncertainty
0	78.38	1.5676
.1	80.61	1.6122
.2	83.24	1.6648
.3	86.37	1.7274
.4	90.18	1.8036

System: N,N-dimethylformamide + water; phases: Liquid
Fixed: Pressure, kPa = 101
Fixed: Temperature, K = 298.15
Property: Mass density, kg/m3 (Liquid); method: Vibrating tube method
Mass fraction of N,N-dimethylformamide	Mass density, kg/m3	uncertainty
.1	996.25	.05
.2	996.41	.05
.3	996.9	.05
.4	997.05	.05

System: N,N-dimethylformamide + water; phases: Liquid
Fixed: Pressure, kPa = 100
Fixed: Temperature, K = 298.15
Fixed: Frequency, MHz = 0.01
Property: Relative permittivity at various frequencies (Liquid); method: Dielectric constant meter
Mass fraction of N,N-dimethylformamide	Relative permittivity at various frequencies	uncertainty
.1	76.8	1.536
.2	74.6	1.492
.3	72.2	1.444
.4	69.06	1.3812
0	78.38	1.5676

System: N,N-dimethylacetamide + water; phases: Liquid
Fixed: Pressure, kPa = 101
Fixed: Temperature, K = 298.15
Property: Mass density, kg/m3 (Liquid); method: Vibrating tube method
Mass fraction of N,N-dimethylacetamide	Mass density, kg/m3	uncertainty
.1	995.78	.05
.2	996.17	.05
.3	997.37	.05
.4	998.57	.05

System: N,N-dimethylacetamide + water; phases: Liquid
Fixed: Pressure, kPa = 100
Fixed: Temperature, K = 298.15
Fixed: Frequency, MHz = 0.01
Property: Relative permittivity at various frequencies (Liquid); method: Dielectric constant meter
Mass fraction of N,N-dimethylacetamide	Relative permittivity at various frequencies	uncertainty
.1	76.5	1.53
.2	74.2	1.484
.3	71.7	1.434
.4	68.5	1.37
0	78.38	1.5676

System: urea + lithium chloride + water; phases: Liquid
Fixed: Temperature, K = 298.15
Fixed: Pressure, kPa = 101
Property: Activity coefficient of lithium chloride (Liquid); method: (Electrochemical) cell potential
Solvent: Mass fraction of urea	Molality, mol/kg of lithium chloride	Activity coefficient of lithium chloride	uncertainty
0	.0035	.9388	.0002
0	.0072	.916	.0002
0	.0109	.9005	.0002
0	.0148	.8881	.0002
0	.0187	.8776	.0002
0	.0271	.8599	.0002
0	.0354	.8465	.0002
0	.0475	.8312	.0002
0	.0599	.8188	.0002
0	.0813	.8026	.0002
0	.1013	.7911	.0002
0	.1339	.7772	.0002
0	.1667	.7671	.0002
0	.2121	.7572	.0002
0	.2597	.7502	.0002
0	.3285	.7441	.0002
0	.3929	.7414	.0002
0	.4919	.7408	.0002
0	.5927	.7434	.0002
0	.7275	.7506	.0002
0	.8769	.7621	.0002
0	1.0038	.7742	.0002
0	1.1197	.7869	.0002
0	1.2231	.7993	.0002
0	1.3645	.818	.0002
0	1.5095	.839	.0002
.1	.0042	.9399	.0002
.1	.0085	.9187	.0002
.1	.0127	.9048	.0002
.1	.0171	.8935	.0002
.1	.0216	.8842	.0002
.1	.0306	.8693	.0002
.1	.0395	.8581	.0002
.1	.0529	.845	.0002
.1	.0664	.8347	.0002
.1	.0888	.8218	.0002
.1	.1108	.8123	.0002
.1	.229	.786	.0002
.1	.2772	.781	.0002
.1	.3504	.7765	.0002
.1	.4265	.7744	.0002
.1	.5265	.7743	.0002
.1	.6263	.7762	.0002
.1	.7652	.7812	.0002
.1	.9115	.7886	.0002
.1	1.0457	.7969	.0002
.1	1.1687	.8056	.0002
.1	1.2818	.8143	.0002
.1	.1458	.8013	.0002
.1	.1794	.7937	.0002
.1	1.4258	.8263	.0002
.1	1.5527	.8377	.0002
.2	.0042	.9431	.0002
.2	.0085	.9231	.0002
.2	.0129	.9092	.0002
.2	.0175	.8982	.0002
.2	.0215	.8901	.0002
.2	.0304	.8762	.0002
.2	.039	.8656	.0002
.2	.0525	.8527	.0002
.2	.0658	.8429	.0002
.2	.0879	.8305	.0002
.2	.1094	.8214	.0002
.2	.1415	.8114	.0002
.2	.1748	.8039	.0002
.2	.2233	.7964	.0002
.2	.2708	.7916	.0002
.2	.3413	.7874	.0002
.2	.4208	.7856	.0002
.2	.5195	.786	.0002
.2	.6266	.7888	.0002
.2	.761	.7948	.0002
.2	.9065	.8034	.0002
.2	1.042	.813	.0002
.2	1.1764	.8237	.0002
.2	1.2775	.8326	.0002
.2	1.4285	.8468	.0002
.2	1.5616	.8603	.0002
.3	.0042	.9448	.0002
.3	.0076	.9287	.0002
.3	.0111	.9168	.0002
.3	.0154	.9053	.0002
.3	.0196	.8961	.0002
.3	.0274	.8825	.0002
.3	.0354	.8714	.0002
.3	.048	.858	.0002
.3	.0602	.8477	.0002
.3	.0811	.8341	.0002
.3	.102	.824	.0002
.3	.1352	.8121	.0002
.3	.1674	.8039	.0002
.3	.2168	.7954	.0002
.3	.2643	.7903	.0002
.3	.3309	.7865	.0002
.3	.4148	.7854	.0002
.3	.5133	.7878	.0002
.3	.6188	.7932	.0002
.3	.7572	.8037	.0002
.3	.9077	.8184	.0002
.3	1.0324	.8326	.0002
.3	1.1591	.8486	.0002
.3	1.2689	.8637	.0002
.3	1.4256	.8871	.0002
.3	1.5617	.9089	.0002
.4	.0039	.9489	.0002
.4	.008	.9304	.0002
.4	.0117	.9187	.0002
.4	.2145	.8042	.0002
.4	.2633	.7993	.0002
.4	.3321	.7959	.0002
.4	.0158	.9084	.0002
.4	.0199	.9	.0002
.4	.0283	.8862	.0002
.4	.0367	.8754	.0002
.4	.0493	.8626	.0002
.4	.0615	.853	.0002
.4	.0824	.8402	.0002
.4	.1035	.8304	.0002
.4	.1363	.8194	.0002
.4	.1684	.8117	.0002
.4	.4136	.7955	.0002
.4	.5089	.7984	.0002
.4	.6113	.8044	.0002
.4	.7476	.8157	.0002
.4	.8978	.8314	.0002
.4	1.0264	.8472	.0002
.4	1.1483	.8637	.0002
.4	1.259	.8799	.0002
.4	1.4073	.9033	.0002
.4	1.5348	.925	.0002

System: N-methylformamide + lithium chloride + water; phases: Liquid
Fixed: Temperature, K = 298.15
Fixed: Pressure, kPa = 101
Property: Activity coefficient of lithium chloride (Liquid); method: (Electrochemical) cell potential
Solvent: Mass fraction of N-methylformamide	Molality, mol/kg of lithium chloride	Activity coefficient of lithium chloride	uncertainty
0	.0046	.9307	.0002
0	.0092	.9071	.0002
0	.0135	.8918	.0002
0	.0181	.8789	.0002
0	.0219	.8703	.0002
0	.0313	.8527	.0002
0	.0405	.8395	.0002
0	.0494	.8291	.0002
0	.0582	.8203	.0002
0	.0722	.8089	.0002
0	.0847	.8005	.0002
0	.1076	.788	.0002
0	.13	.7786	.0002
0	.1658	.7673	.0002
0	.201	.7593	.0002
0	.235	.7535	.0002
0	.2858	.7475	.0002
0	.3349	.7438	.0002
0	.4057	.7411	.0002
0	.4743	.7406	.0002
0	.5696	.7426	.0002
0	.6596	.7466	.0002
0	.7642	.7531	.0002
0	.8876	.7631	.0002
0	1.024	.7763	.0002
0	1.1707	.7929	.0002
0	1.2731	.8057	.0002
0	1.4246	.8265	.0002
0	1.5555	.8461	.0002
0	.0033	.9425	.0002
0	.0066	.9221	.0002
0	.0102	.9068	.0002
0	.0137	.895	.0002
0	.017	.8859	.0002
0	.0243	.8697	.0002
0	.032	.8564	.0002
0	.0389	.8466	.0002
0	.0464	.8375	.0002
0	.0578	.826	.0002
0	.0691	.8166	.0002
0	.0883	.8039	.0002
0	.1067	.7943	.0002
0	.1369	.7821	.0002
0	.1659	.7734	.0002
0	.2158	.7628	.0002
0	.2643	.7561	.0002
0	.3324	.7504	.0002
0	.4011	.7478	.0002
0	.4952	.7477	.0002
0	.5861	.7503	.0002
0	.703	.7564	.0002
0	.8141	.7644	.0002
0	.9611	.7776	.0002
0	1.0961	.7918	.0002
0	1.2032	.8045	.0002
0	1.3462	.8229	.0002
0	1.485	.8424	.0002
.2	.0031	.946	.0002
.2	.0065	.9255	.0002
.2	.0099	.9113	.0002
.2	.0133	.9002	.0002
.2	.0163	.8918	.0002
.2	.0236	.8757	.0002
.2	.0308	.8632	.0002
.2	.0375	.8538	.0002
.2	.0442	.8456	.0002
.2	.0551	.8345	.0002
.2	.0628	.8278	.0002
.2	.081	.8149	.0002
.2	.0993	.8048	.0002
.2	.1269	.793	.0002
.2	.1539	.7844	.0002
.2	.1929	.7754	.0002
.2	.2321	.7691	.0002
.2	.2883	.7633	.0002
.2	.345	.7604	.0002
.2	.4262	.7594	.0002
.2	.506	.7613	.0002
.2	.6095	.7666	.0002
.2	.7011	.7735	.0002
.2	.8278	.7855	.0002
.2	.9741	.8024	.0002
.2	1.1005	.8191	.0002
.2	1.2123	.8354	.0002
.2	1.359	.8586	.0002
.2	1.4923	.8816	.0002
.3	.0028	.9514	.0002
.3	.0056	.9338	.0002
.3	.0084	.921	.0002
.3	.0113	.9111	.0002
.3	.014	.9031	.0002
.3	.0202	.8883	.0002
.3	.0266	.8764	.0002
.3	.0328	.8669	.0002
.3	.0393	.8585	.0002
.3	.0486	.8483	.0002
.3	.0585	.8394	.0002
.3	.0745	.8279	.0002
.3	.0901	.8189	.0002
.3	.1154	.8077	.0002
.3	.141	.7993	.0002
.3	.179	.7904	.0002
.3	.2152	.7848	.0002
.3	.2689	.7799	.0002
.3	.3214	.7778	.0002
.3	.3953	.7782	.0002
.3	.4656	.7811	.0002
.3	.5589	.7878	.0002
.3	.6477	.7965	.0002
.3	.7677	.8111	.0002
.3	.9014	.8305	.0002
.3	1.0122	.8487	.0002
.3	1.1286	.8696	.0002
.3	1.2687	.8972	.0002
.3	1.4121	.9279	.0002
.4	.0028	.9543	.0002
.4	.0063	.9342	.0002
.4	.0092	.9229	.0002
.4	.0128	.912	.0002
.4	.0162	.9035	.0002
.4	.0233	.8893	.0002
.4	.0302	.8786	.0002
.4	.0367	.8701	.0002
.4	.0461	.8602	.0002
.4	.0562	.8515	.0002
.4	.066	.8445	.0002
.4	.0827	.8349	.0002
.4	.0994	.8274	.0002
.4	.1261	.8185	.0002
.4	.1523	.8124	.0002
.4	.191	.8067	.0002
.4	.2285	.8037	.0002
.4	.2841	.8027	.0002
.4	.3384	.8044	.0002
.4	.4152	.8102	.0002
.4	.4874	.8184	.0002
.4	.5842	.8324	.0002
.4	.6838	.8498	.0002
.4	.8033	.874	.0002
.4	.9342	.9042	.0002
.4	1.0631	.9371	.0002
.4	1.1648	.9653	.0002
.4	1.3171	1.011	.0002
.4	1.4629	1.0587	.0002

System: N,N-dimethylformamide + lithium chloride + water; phases: Liquid
Fixed: Temperature, K = 298.15
Fixed: Pressure, kPa = 101
Property: Activity coefficient of lithium chloride (Liquid); method: (Electrochemical) cell potential
Solvent: Mass fraction of N,N-dimethylformamide	Molality, mol/kg of lithium chloride	Activity coefficient of lithium chloride	uncertainty
0	.004	.935	.0002
0	.008	.9123	.0002
0	.0116	.8981	.0002
0	.0155	.886	.0002
0	.0192	.8764	.0002
0	.0264	.8613	.0002
0	.033	.85	.0002
0	.0405	.8396	.0002
0	.0477	.831	.0002
0	.0587	.8199	.0002
0	.0694	.811	.0002
0	.0804	.8032	.0002
0	.0982	.7927	.0002
0	.1159	.7843	.0002
0	.1447	.7736	.0002
0	.1723	.7657	.0002
0	.2138	.7569	.0002
0	.2543	.7509	.0002
0	.3127	.7452	.0002
0	.3701	.7421	.0002
0	.45	.7406	.0002
0	.5253	.7414	.0002
0	.6132	.7443	.0002
0	.7066	.7493	.0002
0	.7946	.7554	.0002
0	.8663	.7612	.0002
0	.9719	.771	.0002
0	1.0687	.7811	.0002
0	1.1915	.7954	.0002
0	1.2603	.8041	.0002
0	1.4182	.8256	.0002
.1	.0027	.9435	.0002
.1	.005	.9259	.0002
.1	.0082	.9089	.0002
.1	.0109	.8974	.0002
.1	.0137	.8877	.0002
.1	.02	.8704	.0002
.1	.0263	.8569	.0002
.1	.0321	.8465	.0002
.1	.0382	.8372	.0002
.1	.047	.8259	.0002
.1	.0564	.8158	.0002
.1	.0656	.8074	.0002
.1	.0806	.7959	.0002
.1	.0959	.7863	.0002
.1	.1194	.7745	.0002
.1	.1437	.765	.0002
.1	.1787	.7545	.0002
.1	.2131	.7468	.0002
.1	.2652	.7386	.0002
.1	.3147	.7334	.0002
.1	.3643	.7301	.0002
.1	.4308	.7277	.0002
.1	.4974	.7272	.0002
.1	.5947	.7289	.0002
.1	.6877	.7326	.0002
.1	.8098	.7399	.0002
.1	.8652	.7439	.0002
.1	.9797	.7534	.0002
.1	1.0976	.7647	.0002
.1	1.244	.7805	.0002
.1	1.2982	.7869	.0002
.1	1.413	.8011	.0002
.2	.0027	.9415	.0002
.2	.005	.9233	.0002
.2	.0075	.9089	.0002
.2	.0099	.8976	.0002
.2	.0128	.8868	.0002
.2	.019	.8681	.0002
.2	.0254	.8536	.0002
.2	.0322	.8409	.0002
.2	.0381	.8318	.0002
.2	.0473	.8197	.0002
.2	.0563	.8098	.0002
.2	.0651	.8015	.0002
.2	.0803	.7897	.0002
.2	.0955	.7799	.0002
.2	.119	.7679	.0002
.2	.1422	.7585	.0002
.2	.1772	.7477	.0002
.2	.2112	.7398	.0002
.2	.2622	.7313	.0002
.2	.3097	.726	.0002
.2	.3776	.7212	.0002
.2	.4445	.7188	.0002
.2	.5302	.7183	.0002
.2	.6167	.7199	.0002
.2	.7232	.724	.0002
.2	.857	.7318	.0002
.2	.9773	.7407	.0002
.2	1.0932	.7507	.0002
.2	1.2212	.7632	.0002
.2	1.2993	.7715	.0002
.2	1.4492	.7887	.0002
.3	.0029	.936	.0002
.3	.0058	.9133	.0002
.3	.0086	.8979	.0002
.3	.0115	.8853	.0002
.3	.0146	.8742	.0002
.3	.0205	.8569	.0002
.3	.0265	.8429	.0002
.3	.0327	.8309	.0002
.3	.0388	.8209	.0002
.3	.0478	.8085	.0002
.3	.0569	.798	.0002
.3	.0658	.7891	.0002
.3	.0813	.7761	.0002
.3	.0965	.7658	.0002
.3	.1202	.7528	.0002
.3	.1442	.7425	.0002
.3	.1795	.7308	.0002
.3	.2135	.7223	.0002
.3	.2665	.7128	.0002
.3	.3158	.7067	.0002
.3	.3839	.7015	.0002
.3	.4488	.6989	.0002
.3	.5367	.6981	.0002
.3	.6192	.6995	.0002
.3	.7023	.7025	.0002
.3	.8065	.708	.0002
.3	.9418	.7176	.0002
.3	1.0652	.7283	.0002
.3	1.1779	.7395	.0002
.3	1.3286	.7563	.0002
.3	1.4819	.7753	.0002
.4	.0022	.9394	.0002
.4	.0047	.9156	.0002
.4	.0073	.898	.0002
.4	.0098	.8849	.0002
.4	.0122	.8742	.0002
.4	.0176	.855	.0002
.4	.0232	.8392	.0002
.4	.0286	.8269	.0002
.4	.034	.8161	.0002
.4	.0425	.8018	.0002
.4	.0509	.7901	.0002
.4	.0596	.7798	.0002
.4	.0734	.7659	.0002
.4	.0875	.7544	.0002
.4	.1091	.74	.0002
.4	.1314	.7283	.0002
.4	.1633	.7153	.0002
.4	.1938	.7058	.0002
.4	.2394	.6952	.0002
.4	.2838	.6878	.0002
.4	.348	.6809	.0002
.4	.41	.6771	.0002
.4	.4931	.6751	.0002
.4	.5709	.6757	.0002
.4	.6638	.6788	.0002
.4	.7696	.6848	.0002
.4	.8788	.693	.0002
.4	.9985	.7042	.0002
.4	1.1119	.7165	.0002
.4	1.2656	.7356	.0002
.4	1.4107	.7559	.0002

System: N,N-dimethylacetamide + lithium chloride + water; phases: Liquid
Fixed: Temperature, K = 298.15
Fixed: Pressure, kPa = 101
Property: Activity coefficient of lithium chloride (Liquid); method: (Electrochemical) cell potential
Solvent: Mass fraction of N,N-dimethylacetamide	Molality, mol/kg of lithium chloride	Activity coefficient of lithium chloride	uncertainty
0	.0033	.9398	.0002
0	.0069	.9175	.0002
0	.0108	.9009	.0002
0	.0145	.8887	.0002
0	.0182	.8789	.0002
0	.0265	.861	.0002
0	.0353	.8466	.0002
0	.0441	.835	.0002
0	.0574	.8211	.0002
0	.0702	.8104	.0002
0	.0921	.796	.0002
0	.1138	.7852	.0002
0	.1491	.7722	.0002
0	.1816	.7634	.0002
0	.2304	.7542	.0002
0	.2792	.7481	.0002
0	.3496	.743	.0002
0	.4134	.7409	.0002
0	.5054	.741	.0002
0	.6065	.744	.0002
0	.7454	.7518	.0002
0	.8844	.7628	.0002
0	1.0276	.7767	.0002
0	1.1612	.7918	.0002
0	1.263	.8044	.0002
0	1.4138	.825	.0002
0	1.5483	.845	.0002
.1	.0029	.9414	.0002
.1	.0061	.9189	.0002
.1	.0092	.9036	.0002
.1	.0122	.8921	.0002
.1	.0149	.8833	.0002
.1	.0212	.8665	.0002
.1	.0282	.8519	.0002
.1	.0387	.8349	.0002
.1	.0495	.821	.0002
.1	.0669	.8038	.0002
.1	.0842	.7904	.0002
.1	.1107	.7747	.0002
.1	.1373	.7626	.0002
.1	.1827	.7474	.0002
.1	.2285	.7364	.0002
.1	.2916	.7258	.0002
.1	.362	.7179	.0002
.1	.4439	.7121	.0002
.1	.5591	.7081	.0002
.1	.7013	.7076	.0002
.1	.8573	.7107	.0002
.1	.987	.7155	.0002
.1	1.1175	.7219	.0002
.1	1.2302	.7285	.0002
.1	1.3909	.7393	.0002
.1	1.5353	.7504	.0002
.2	.0028	.9395	.0002
.2	.0062	.9142	.0002
.2	.0095	.8973	.0002
.2	.0127	.8846	.0002
.2	.0158	.8743	.0002
.2	.0228	.8554	.0002
.2	.0296	.841	.0002
.2	.04	.8235	.0002
.2	.0503	.8099	.0002
.2	.0668	.7923	.0002
.2	.0836	.7783	.0002
.2	.1093	.7616	.0002
.2	.1357	.7483	.0002
.2	.171	.7348	.0002
.2	.2117	.7229	.0002
.2	.2765	.7094	.0002
.2	.368	.6975	.0002
.2	.4582	.6906	.0002
.2	.5788	.6862	.0002
.2	.7114	.6856	.0002
.2	.8569	.6884	.0002
.2	.9946	.6936	.0002
.2	1.1172	.6998	.0002
.2	1.2298	.7066	.0002
.2	1.3864	.7176	.0002
.2	1.5262	.7288	.0002
.3	.003	.9346	.0002
.3	.0059	.9114	.0002
.3	.0089	.8948	.0002
.3	.0115	.8829	.0002
.3	.0173	.8626	.0002
.3	.0233	.8464	.0002
.3	.0303	.831	.0002
.3	.0395	.8147	.0002
.3	.0478	.8026	.0002
.3	.0635	.7841	.0002
.3	.0794	.7692	.0002
.3	.1049	.7506	.0002
.3	.129	.737	.0002
.3	.1651	.7211	.0002
.3	.2019	.7087	.0002
.3	.2557	.6951	.0002
.3	.3117	.6847	.0002
.3	.3898	.6746	.0002
.3	.4682	.6678	.0002
.3	.576	.6623	.0002
.3	.7302	.6594	.0002
.3	.8912	.6608	.0002
.3	1.0102	.6639	.0002
.3	1.1381	.6688	.0002
.3	1.2465	.674	.0002
.3	1.4066	.6832	.0002
.3	1.5609	.6936	.0002
.4	.0031	.929	.0002
.4	.0057	.9077	.0002
.4	.0085	.8907	.0002
.4	.0114	.8768	.0002
.4	.0145	.8649	.0002
.4	.0208	.8452	.0002
.4	.0267	.8305	.0002
.4	.0333	.8169	.0002
.4	.043	.8007	.0002
.4	.0525	.7876	.0002
.4	.0681	.7703	.0002
.4	.084	.7561	.0002
.4	.1093	.7383	.0002
.4	.1338	.7248	.0002
.4	.1716	.7086	.0002
.4	.2095	.6962	.0002
.4	.2632	.6827	.0002
.4	.3204	.6719	.0002
.4	.3969	.6613	.0002
.4	.4779	.6533	.0002
.4	.5904	.6458	.0002
.4	.7635	.6397	.0002
.4	.919	.6378	.0002
.4	1.0501	.6382	.0002
.4	1.1883	.6401	.0002
.4	1.2906	.6424	.0002
.4	1.449	.647	.0002
.4	1.5886	.6521	.0002
