Measured thermophysical data. Measurement and correlation of vapor-liquid equilibria for alkane + alkanol andalkane + alkanediol systems with group contribution COSMOSPACE model
Source: Fluid Phase Equilib., 2013, 10.1016/j.fluid.2013.02.008
Compound 1: 1-decanol, C10H22O, purity 99%
Compound 2: 1-dodecanol, C12H26O, purity 99%
Compound 3: 1-tetradecanol, C14H30O, purity 99%
Compound 4: 1,2-ethanediol, C2H6O2, purity 99%
Compound 5: 1,3-propanediol, C3H8O2, purity 99%
Compound 6: hexane, C6H14, purity 99%
Compound 7: octane, C8H18, purity 99%
Compound 8: decane, C10H22, purity 99%

System: hexane + 1-decanol; phases: Liquid
Fixed: Pressure, kPa = 101
Fixed: Mole fraction of hexane = 0
Property: Activity coefficient of hexane (Liquid); method: Chromatography
Temperature, K	Activity coefficient of hexane	uncertainty
312.6	2.21	.0663
331.7	2.14	.0642
352.9	2.02	.0606

System: octane + 1-decanol; phases: Liquid
Fixed: Pressure, kPa = 101
Fixed: Mole fraction of octane = 0
Property: Activity coefficient of octane (Liquid); method: Chromatography
Temperature, K	Activity coefficient of octane	uncertainty
352.7	2.44	.0732
372.2	2.28	.0684
391.8	2.15	.0645

System: 1-decanol + decane; phases: Liquid
Fixed: Pressure, kPa = 101
Fixed: Mole fraction of decane = 0
Property: Activity coefficient of decane (Liquid); method: Chromatography
Temperature, K	Activity coefficient of decane	uncertainty
352.8	2.98	.0894
372.2	2.73	.0819
391.6	2.6	.078

System: hexane + 1-dodecanol; phases: Liquid
Fixed: Pressure, kPa = 101
Fixed: Mole fraction of hexane = 0
Property: Activity coefficient of hexane (Liquid); method: Chromatography
Temperature, K	Activity coefficient of hexane	uncertainty
312.7	2.03	.0609
332.1	1.98	.0594
353.2	1.86	.0558

System: octane + 1-dodecanol; phases: Liquid
Fixed: Pressure, kPa = 101
Fixed: Mole fraction of octane = 0
Property: Activity coefficient of octane (Liquid); method: Chromatography
Temperature, K	Activity coefficient of octane	uncertainty
353.3	2.29	.0687
362.6	2.21	.0663
372.4	2.16	.0648
383	2.08	.0624
411.1	1.9	.057
430.6	1.76	.0528

System: 1-dodecanol + decane; phases: Liquid
Fixed: Pressure, kPa = 101
Fixed: Mole fraction of decane = 0
Property: Activity coefficient of decane (Liquid); method: Chromatography
Temperature, K	Activity coefficient of decane	uncertainty
352.7	3.46	.1038
362.5	2.93	.0879
372.8	2.67	.0801
382.9	2.42	.0726
392	2.31	.0693
410.9	2.31	.0693
430.6	2.18	.0654

System: hexane + 1-tetradecanol; phases: Liquid
Fixed: Pressure, kPa = 101
Fixed: Mole fraction of hexane = 0
Property: Activity coefficient of hexane (Liquid); method: Chromatography
Temperature, K	Activity coefficient of hexane	uncertainty
331.8	1.69	.0507
353	1.6	.048

System: octane + 1-tetradecanol; phases: Liquid
Fixed: Pressure, kPa = 101
Fixed: Mole fraction of octane = 0
Property: Activity coefficient of octane (Liquid); method: Chromatography
Temperature, K	Activity coefficient of octane	uncertainty
353	1.87	.0561
372.4	1.76	.0528
391.9	1.69	.0507
410.6	1.63	.0489
430.6	1.61	.0483

System: 1-tetradecanol + decane; phases: Liquid
Fixed: Pressure, kPa = 101
Fixed: Mole fraction of decane = 0
Property: Activity coefficient of decane (Liquid); method: Chromatography
Temperature, K	Activity coefficient of decane	uncertainty
353	2.1	.063
372.4	1.9	.057
392	1.79	.0537
430.3	1.68	.0504

System: 1,2-ethanediol + hexane; phases: Liquid
Fixed: Pressure, kPa = 101
Fixed: Mole fraction of hexane = 0
Property: Activity coefficient of hexane (Liquid); method: Chromatography
Temperature, K	Activity coefficient of hexane	uncertainty
313.2	97.8	2.934
332.1	88.1	2.643
353.5	80.6	2.418

System: 1,2-ethanediol + octane; phases: Liquid, Gas
Fixed: Mole fraction of octane = 0
Property: Activity coefficient of octane (Liquid); method: Chromatography
Temperature, K	Activity coefficient of octane	uncertainty
332.1	631	18.93
353.6	447	13.41
372.7	383	11.49
392.4	313	9.39

System: 1,2-ethanediol + decane; phases: Liquid
Fixed: Pressure, kPa = 101
Fixed: Mole fraction of decane = 0
Property: Activity coefficient of decane (Liquid); method: Chromatography
Temperature, K	Activity coefficient of decane	uncertainty
359.5	1680	50.4
373.1	1210	36.3
392.4	804	24.12
411.5	557	16.71
431	454	13.62

System: hexane + 1,3-propanediol; phases: Liquid
Fixed: Pressure, kPa = 101
Fixed: Mole fraction of hexane = 0
Property: Activity coefficient of hexane (Liquid); method: Chromatography
Temperature, K	Activity coefficient of hexane	uncertainty
312.1	77.2	2.316
333.1	72.9	2.187
352.1	52.4	1.572

System: octane + 1,3-propanediol; phases: Liquid
Fixed: Pressure, kPa = 101
Fixed: Mole fraction of octane = 0
Property: Activity coefficient of octane (Liquid); method: Chromatography
Temperature, K	Activity coefficient of octane	uncertainty
312.1	314	9.42
333.1	283	8.49
352.1	224	6.72
372.1	187	5.61
391.1	148	4.44

System: decane + 1,3-propanediol; phases: Liquid
Fixed: Pressure, kPa = 101
Fixed: Mole fraction of decane = 0
Property: Activity coefficient of decane (Liquid); method: Chromatography
Temperature, K	Activity coefficient of decane	uncertainty
312.1	793	23.79
333.1	589	17.67
352.1	501	15.03
372.1	464	13.92
391.1	338	10.14
411.1	256	7.68
