Measured thermophysical data. Modeling phase equilibria of ternary systems (water + formic acid + ester or alcohol) through UNIFAC-original, SERLAS, NRTL, NRTL-modified, and three-suffix Margules: Parameter estimation using genetic algorithm
Source: Fluid Phase Equilib., 2016, 10.1016/j.fluid.2016.08.041
Compound 1: formic acid, CH2O2, purity 99%
Compound 2: diethyl sebacate, C14H26O4, purity 99%
Compound 3: diethyl succinate, C8H14O4, purity 99%
Compound 4: ethyl caprylate, C10H20O2, purity 99%
Compound 5: ethyl valerate, C7H14O2, purity 99%
Compound 6: isoamyl alcohol, C5H12O, purity 99%
Compound 7: water, H2O, purity 99.8%

System: formic acid; phases: Liquid
Fixed: Pressure, kPa = 101.325
Property: Mass density, kg/m3 (Liquid); method: Vibrating tube method
Temperature, K	Mass density, kg/m3	uncertainty
298.2	1214.1	.1

System: formic acid; phases: Liquid
Fixed: Pressure, kPa = 101.325
Property: Refractive index (Na D-line) (Liquid); method: Standard Abbe refractometry
Temperature, K	Refractive index (Na D-line)	uncertainty
298.2	1.36939	.0001

System: diethyl sebacate; phases: Liquid
Fixed: Pressure, kPa = 101.325
Property: Mass density, kg/m3 (Liquid); method: Vibrating tube method
Temperature, K	Mass density, kg/m3	uncertainty
298.2	959.18	.1

System: diethyl sebacate; phases: Liquid
Fixed: Pressure, kPa = 101.325
Property: Refractive index (Na D-line) (Liquid); method: Standard Abbe refractometry
Temperature, K	Refractive index (Na D-line)	uncertainty
298.2	1.43485	.0001

System: diethyl succinate; phases: Liquid
Fixed: Pressure, kPa = 101.325
Property: Mass density, kg/m3 (Liquid); method: Vibrating tube method
Temperature, K	Mass density, kg/m3	uncertainty
298.2	1035.34	.1

System: diethyl succinate; phases: Liquid
Fixed: Pressure, kPa = 101.325
Property: Refractive index (Na D-line) (Liquid); method: Standard Abbe refractometry
Temperature, K	Refractive index (Na D-line)	uncertainty
298.2	1.41967	.0001

System: ethyl caprylate; phases: Liquid
Fixed: Pressure, kPa = 101.325
Property: Mass density, kg/m3 (Liquid); method: Vibrating tube method
Temperature, K	Mass density, kg/m3	uncertainty
298.2	862.23	.1

System: ethyl caprylate; phases: Liquid
Fixed: Pressure, kPa = 101.325
Property: Refractive index (Na D-line) (Liquid); method: Standard Abbe refractometry
Temperature, K	Refractive index (Na D-line)	uncertainty
298.2	1.41572	.0001

System: ethyl valerate; phases: Liquid
Fixed: Pressure, kPa = 101.325
Property: Mass density, kg/m3 (Liquid); method: Vibrating tube method
Temperature, K	Mass density, kg/m3	uncertainty
298.2	872.36	.1

System: ethyl valerate; phases: Liquid
Fixed: Pressure, kPa = 101.325
Property: Refractive index (Na D-line) (Liquid); method: Standard Abbe refractometry
Temperature, K	Refractive index (Na D-line)	uncertainty
298.2	1.39841	.0001

System: isoamyl alcohol; phases: Liquid
Fixed: Pressure, kPa = 101.325
Property: Mass density, kg/m3 (Liquid); method: Vibrating tube method
Temperature, K	Mass density, kg/m3	uncertainty
298.2	807.16	.1

System: isoamyl alcohol; phases: Liquid
Fixed: Pressure, kPa = 101.325
Property: Refractive index (Na D-line) (Liquid); method: Standard Abbe refractometry
Temperature, K	Refractive index (Na D-line)	uncertainty
298.2	1.40528	.0001

System: formic acid + diethyl sebacate + water; phases: Liquid mixture 2, Liquid mixture 1
Fixed: Temperature, K = 298.2
Fixed: Pressure, kPa = 101.3
Property: Mole fraction of formic acid (Liquid mixture 2); method: Chromatography
Property: Mole fraction of formic acid (Liquid mixture 1); method: Chromatography
Property: Mole fraction of diethyl sebacate (Liquid mixture 1); method: Chromatography
Mole fraction of diethyl sebacate	Mole fraction of formic acid	uncertainty	Mole fraction of formic acid	uncertainty	Mole fraction of diethyl sebacate	uncertainty
.9734	0	.0005	0	.0005	.0001	.0005
.2557	.4445	.0005	.3613	.0005	.0015	.0005
.2161	.4592	.0005	.3956	.0005	.0027	.0005
.8196	.1379	.0005	.0666	.0005	.0001	.0005
.7743	.1711	.0005	.0954	.0005	.0001	.0005
.6559	.2159	.0005	.1371	.0005	.0001	.0005
.5338	.2729	.0005	.1779	.0005	.0001	.0005
.509	.2913	.0005	.2047	.0005	.0001	.0005
.4389	.3197	.0005	.2398	.0005	.0004	.0005
.3748	.3842	.0005	.2822	.0005	.0006	.0005
.324	.4106	.0005	.3091	.0005	.0008	.0005

System: formic acid + diethyl succinate + water; phases: Liquid mixture 2, Liquid mixture 1
Fixed: Temperature, K = 298.2
Fixed: Pressure, kPa = 101.3
Property: Mole fraction of formic acid (Liquid mixture 2); method: Chromatography
Property: Mole fraction of formic acid (Liquid mixture 1); method: Chromatography
Property: Mole fraction of diethyl succinate (Liquid mixture 1); method: Chromatography
Mole fraction of diethyl succinate	Mole fraction of formic acid	uncertainty	Mole fraction of formic acid	uncertainty	Mole fraction of diethyl succinate	uncertainty
.9077	0	.0005	0	.0005	.0002	.0005
.7114	.0869	.0005	.0316	.0005	.0027	.0005
.5866	.1396	.0005	.0595	.0005	.0037	.0005
.456	.199	.0005	.0912	.0005	.0051	.0005
.3294	.226	.0005	.1181	.0005	.0076	.0005
.2489	.2459	.0005	.1432	.0005	.0111	.0005

System: formic acid + ethyl caprylate + water; phases: Liquid mixture 1, Liquid mixture 2
Fixed: Temperature, K = 298.2
Fixed: Pressure, kPa = 101.3
Property: Mole fraction of ethyl caprylate (Liquid mixture 1); method: Chromatography
Property: Mole fraction of formic acid (Liquid mixture 2); method: Chromatography
Property: Mole fraction of ethyl caprylate (Liquid mixture 2); method: Chromatography
Mole fraction of formic acid	Mole fraction of ethyl caprylate	uncertainty	Mole fraction of formic acid	uncertainty	Mole fraction of ethyl caprylate	uncertainty
0	.0002	.0005	0	.0005	.9666	.0005
.0746	.0009	.0005	.0498	.0005	.8653	.0005
.154	.0012	.0005	.0951	.0005	.8214	.0005
.2356	.0014	.0005	.1528	.0005	.7547	.0005
.3274	.0016	.0005	.2224	.0005	.6787	.0005
.425	.0018	.0005	.2964	.0005	.5885	.0005
.5193	.003	.0005	.3745	.0005	.4926	.0005

System: formic acid + ethyl valerate + water; phases: Liquid mixture 2, Liquid mixture 1
Fixed: Temperature, K = 298.2
Fixed: Pressure, kPa = 101.3
Property: Mole fraction of ethyl valerate (Liquid mixture 2); method: Chromatography
Property: Mole fraction of formic acid (Liquid mixture 1); method: Chromatography
Property: Mole fraction of ethyl valerate (Liquid mixture 1); method: Chromatography
Mole fraction of formic acid	Mole fraction of ethyl valerate	uncertainty	Mole fraction of formic acid	uncertainty	Mole fraction of ethyl valerate	uncertainty
0	.9116	.0005	0	.0005	.0008	.0005
.0656	.7604	.0005	.0705	.0005	.003	.0005
.1336	.6889	.0005	.1505	.0005	.0049	.0005
.2094	.5836	.0005	.2342	.0005	.0067	.0005
.2943	.4821	.0005	.3056	.0005	.0089	.0005
.3811	.3535	.0005	.4095	.0005	.0165	.0005

System: formic acid + isoamyl alcohol + water; phases: Liquid mixture 2, Liquid mixture 1
Fixed: Temperature, K = 298.2
Fixed: Pressure, kPa = 101.3
Property: Mole fraction of isoamyl alcohol (Liquid mixture 2); method: Chromatography
Property: Mole fraction of formic acid (Liquid mixture 1); method: Chromatography
Property: Mole fraction of isoamyl alcohol (Liquid mixture 1); method: Chromatography
Mole fraction of formic acid	Mole fraction of isoamyl alcohol	uncertainty	Mole fraction of formic acid	uncertainty	Mole fraction of isoamyl alcohol	uncertainty
0	.6401	.0005	0	.0005	.0045	.0005
.072	.5436	.0005	.0339	.0005	.0062	.0005
.096	.5064	.0005	.0713	.0005	.0077	.0005
.1207	.4756	.0005	.1317	.0005	.0121	.0005
.141	.4318	.0005	.214	.0005	.0329	.0005
