Measured thermophysical data. Phase equilibria of imidazolium ionic liquids and the refrigerant gas,  1,1,1,2-tetrafluoroethane (R-134a)
Source: Fluid Phase Equilib., 2009, 10.1016/j.fluid.2009.07.007
Compound 1: 1-hexyl-3-methylimidazolium bis[(trifluoromethyl)sulfonyl]imide, C12H19F6N3O4S2
Compound 2: 1-hexyl-3-methylimidazolium hexafluorophosphate, C10H19F6N2P
Compound 3: 1-hexyl-3-methylimidazolium tetrafluoroborate, C10H19BF4N2
Compound 4: 1,1,1,2-tetrafluoroethane, C2H2F4, purity 99.99%

System: 1,1,1,2-tetrafluoroethane + 1-hexyl-3-methylimidazolium bis[(trifluoromethyl)sulfonyl]imide; phases: Liquid, Gas
Property: Mole fraction of 1,1,1,2-tetrafluoroethane (Liquid); method: Mass balance method
Temperature, K	Pressure, kPa	Mole fraction of 1,1,1,2-tetrafluoroethane	uncertainty
298.15	42	.0247	.0019
298.15	75	.0761	.0017
298.15	117	.1442	.0015
298.15	181	.236	.0012
298.15	251	.3416	.0009
298.15	346	.4609	.0006
298.15	402	.5264	.0005
298.15	455	.5893	.0004
298.15	523	.6724	.0002
298.15	586	.7578	.0001
323.15	53	.0282	.0014
323.15	104	.0652	.0013
323.15	155	.11	.0012
323.15	213	.1604	.0011
323.15	286	.2123	.001
323.15	392	.286	.0008
323.15	506	.3577	.0007
323.15	612	.4223	.0006
323.15	748	.5019	.0005
323.15	866	.5702	.0004
323.15	972	.6267	.0003
323.15	1062	.6807	.0003
323.15	1143	.7334	.0002
323.15	1192	.7642	.0002
348.15	502	.2429	.0044
348.15	874	.3916	.0033
348.15	1211	.5145	.0025
348.15	1559	.6205	.0019
348.15	1878	.7157	.0013

System: 1,1,1,2-tetrafluoroethane + 1-hexyl-3-methylimidazolium bis[(trifluoromethyl)sulfonyl]imide; phases: Liquid, Gas
Property: Critical pressure, kPa (Liquid); method: Mass balance method
Mole fraction of 1,1,1,2-tetrafluoroethane	Critical pressure, kPa	uncertainty
.96	4320	1

System: 1,1,1,2-tetrafluoroethane + 1-hexyl-3-methylimidazolium bis[(trifluoromethyl)sulfonyl]imide; phases: Liquid mixture 1, Liquid mixture 2, Gas
Property: Mole fraction of 1,1,1,2-tetrafluoroethane (Liquid mixture 1); method: Mass balance method
Temperature, K	Mole fraction of 1,1,1,2-tetrafluoroethane	uncertainty
348.15	.9107	.001

System: 1,1,1,2-tetrafluoroethane + 1-hexyl-3-methylimidazolium bis[(trifluoromethyl)sulfonyl]imide; phases: Liquid mixture 1, Liquid mixture 2, Gas
Property: Vapor or sublimation pressure, kPa (Liquid mixture 1); method: Mass balance method
Temperature, K	Vapor or sublimation pressure, kPa	uncertainty
348.15	2292	20

System: 1,1,1,2-tetrafluoroethane + 1-hexyl-3-methylimidazolium hexafluorophosphate; phases: Liquid, Gas
Property: Mole fraction of 1,1,1,2-tetrafluoroethane (Liquid); method: Mass balance method
Temperature, K	Pressure, kPa	Mole fraction of 1,1,1,2-tetrafluoroethane	uncertainty
298.15	81	.0594	.0042
298.15	133	.1242	.0037
298.15	220	.2116	.0031
298.15	304	.3093	.0024
298.15	429	.4529	.0016
298.15	576	.6507	.0007
323.15	89	.0295	.0027
323.15	177	.0739	.0025
323.15	340	.1659	.0021
323.15	512	.2723	.0017
323.15	665	.3544	.0015
323.15	810	.4238	.0013
323.15	921	.4809	.0011
323.15	1077	.5856	.0008
323.15	1193	.6683	.0005
323.15	1283	.7677	.0002
348.15	623	.1997	.0045
348.15	1011	.3231	.0038
348.15	1348	.433	.0032
348.15	1713	.5437	.0025
348.15	2057	.6368	.002

System: 1,1,1,2-tetrafluoroethane + 1-hexyl-3-methylimidazolium hexafluorophosphate; phases: Liquid, Gas
Property: Critical pressure, kPa (Liquid); method: Mass balance method
Mole fraction of 1,1,1,2-tetrafluoroethane	Critical pressure, kPa	uncertainty
.9572	12880	1

System: 1,1,1,2-tetrafluoroethane + 1-hexyl-3-methylimidazolium hexafluorophosphate; phases: Liquid mixture 1, Liquid mixture 2, Gas
Property: Mole fraction of 1,1,1,2-tetrafluoroethane (Liquid mixture 1); method: Mass balance method
Temperature, K	Mole fraction of 1,1,1,2-tetrafluoroethane	uncertainty
348.15	.8262	.0012

System: 1,1,1,2-tetrafluoroethane + 1-hexyl-3-methylimidazolium hexafluorophosphate; phases: Liquid mixture 1, Liquid mixture 2, Gas
Property: Vapor or sublimation pressure, kPa (Liquid mixture 1); method: Mass balance method
Temperature, K	Vapor or sublimation pressure, kPa	uncertainty
348.15	2322	20

System: 1,1,1,2-tetrafluoroethane + 1-hexyl-3-methylimidazolium tetrafluoroborate; phases: Liquid, Gas
Property: Mole fraction of 1,1,1,2-tetrafluoroethane (Liquid); method: Mass balance method
Temperature, K	Pressure, kPa	Mole fraction of 1,1,1,2-tetrafluoroethane	uncertainty
298.15	81	.0438	.0024
298.15	156	.1305	.002
298.15	242	.2236	.0016
298.15	422	.4156	.001
298.15	512	.5222	.0007
323.15	86	.0308	.0023
323.15	170	.0761	.0022
323.15	350	.1768	.0018
323.15	530	.2734	.0015
323.15	768	.3953	.0012
323.15	1060	.5737	.0007
323.15	1227	.7071	.0003
348.15	612	0	.0049
348.15	986	.2006	.0043
348.15	1344	.3155	.0036
348.15	1662	.4292	.003
348.15	1970	.5235	.0025

System: 1,1,1,2-tetrafluoroethane + 1-hexyl-3-methylimidazolium tetrafluoroborate; phases: Liquid, Gas
Property: Critical pressure, kPa (Liquid); method: Mass balance method
Mole fraction of 1,1,1,2-tetrafluoroethane	Critical pressure, kPa	uncertainty
.9631	14330	1

System: 1,1,1,2-tetrafluoroethane + 1-hexyl-3-methylimidazolium tetrafluoroborate; phases: Liquid mixture 1, Liquid mixture 2, Gas
Property: Mole fraction of 1,1,1,2-tetrafluoroethane (Liquid mixture 1); method: Mass balance method
Temperature, K	Mole fraction of 1,1,1,2-tetrafluoroethane	uncertainty
348.15	.8291	.0015

System: 1,1,1,2-tetrafluoroethane + 1-hexyl-3-methylimidazolium tetrafluoroborate; phases: Liquid mixture 1, Liquid mixture 2, Gas
Property: Vapor or sublimation pressure, kPa (Liquid mixture 1); method: Mass balance method
Temperature, K	Vapor or sublimation pressure, kPa	uncertainty
348.15	2324	20
