Measured thermophysical data. A new semi-empirical model for correlating the solubilities of solids in supercritical carbon dioxide with cosolvents
Source: Fluid Phase Equilib., 2011, 10.1016/j.fluid.2011.08.021
Compound 1: carbon dioxide, CO2, purity 99%
Compound 2: 1,3-dinitrobenzene, C6H4N2O4, purity 98%
Compound 3: methanol, CH4O, purity 98%

System: methanol + 1,3-dinitrobenzene + carbon dioxide; phases: Fluid (supercritical or subcritical phases), Crystal
Property: Mole fraction of 1,3-dinitrobenzene (Fluid (supercritical or subcritical phases)); method: saturation method
Temperature, K	Pressure, kPa	Mole fraction of methanol	Mole fraction of 1,3-dinitrobenzene	uncertainty
308	9500	.0127	.00297	.0000594
308	10500	.0127	.00369	.0000738
308	11500	.0118	.00452	.0000904
308	12500	.0118	.00511	.0001022
308	13500	.0113	.00597	.0001194
308	14500	.0113	.00708	.0001416
318	9500	.0217	.00074	.0000148
318	10500	.016	.00173	.0000346
318	11500	.0141	.00331	.0000662
318	12500	.013	.00445	.000089
318	13500	.013	.00537	.0001074

System: 1,3-dinitrobenzene + carbon dioxide; phases: Fluid (supercritical or subcritical phases), Crystal
Property: Mole fraction of 1,3-dinitrobenzene (Fluid (supercritical or subcritical phases)); method: saturation method
Temperature, K	Pressure, kPa	Mole fraction of 1,3-dinitrobenzene	uncertainty
308	9500	.00205	.000041
308	10500	.00293	.0000586
308	11500	.00342	.0000684
308	12500	.00409	.0000818
308	13500	.00461	.0000922
308	14500	.00554	.0001108
318	9500	.00057	.0000114
318	10500	.00132	.0000264
318	11500	.00225	.000045
318	12500	.00283	.0000566
318	13500	.00353	.0000706
