Measured thermophysical data. Isobaric vapor liquid equilibrium for binary system of methanol and acetonitrile
Source: Fluid Phase Equilib., 2013, 10.1016/j.fluid.2012.12.003
Compound 1: methyl alcohol, CH4O, purity 99.7%
Compound 2: acetonitrile, C2H3N, purity 99.5%

System: methyl alcohol; phases: Liquid
Fixed: Pressure, kPa = 101.325
Property: Mass density, kg/m3 (Liquid); method: Vibrating tube method
Temperature, K	Mass density, kg/m3	uncertainty
293.15	791.82	

System: methyl alcohol; phases: Liquid, Gas
Property: Normal boiling temperature, K (Liquid); method: Distillation
Normal boiling temperature, K	uncertainty
338.41	

System: methyl alcohol; phases: Liquid
Fixed: Pressure, kPa = 101.325
Property: Refractive index (Na D-line) (Liquid); method: Standard Abbe refractometry
Temperature, K	Refractive index (Na D-line)	uncertainty
293.15	1.32835	

System: acetonitrile; phases: Liquid
Fixed: Pressure, kPa = 101.325
Property: Mass density, kg/m3 (Liquid); method: Vibrating tube method
Temperature, K	Mass density, kg/m3	uncertainty
293.15	783.38	

System: acetonitrile; phases: Liquid, Gas
Property: Normal boiling temperature, K (Liquid); method: Distillation
Normal boiling temperature, K	uncertainty
355.66	

System: acetonitrile; phases: Liquid
Fixed: Pressure, kPa = 101.325
Property: Refractive index (Na D-line) (Liquid); method: Standard Abbe refractometry
Temperature, K	Refractive index (Na D-line)	uncertainty
293.15	1.34358	

System: methyl alcohol + acetonitrile; phases: Gas, Liquid
Property: Mole fraction of methyl alcohol (Gas); method: Chromatography
Mole fraction of methyl alcohol	Pressure, kPa	Mole fraction of methyl alcohol	uncertainty
1	101.3	1	
.962	101.3	.945	
.866	101.3	.86	
.805	101.3	.814	
.766	101.3	.785	
.646	101.3	.706	
.602	101.3	.687	
.437	101.3	.6	
.31	101.3	.529	
.171	101.3	.38	
.054	101.3	.189	
0	101.3	0	

System: methyl alcohol + acetonitrile; phases: Liquid, Gas
Property: Boiling temperature at pressure P, K (Liquid); method: Closed cell (Static) method
Mole fraction of methyl alcohol	Pressure, kPa	Boiling temperature at pressure P, K	uncertainty
1	101.3	338.41	
.962	101.3	338.04	
.866	101.3	336.96	
.805	101.3	337.02	
.766	101.3	337.09	
.646	101.3	337.71	
.602	101.3	338.09	
.437	101.3	339.38	
.31	101.3	340.55	
.171	101.3	344.6	
.054	101.3	350.19	
0	101.3	355.66	
