Measured thermophysical data. Thermophysical properties of sulfonium- and ammonium-based ionic liquids
Source: Fluid Phase Equilib., 2014, 10.1016/j.fluid.2014.08.005
Compound 1: butyltrimethylammonium bis(trifluoromethylsulfonyl)imide, C9H18F6N2O4S2, purity 99%
Compound 2: tributylmethylammonium bis(trifluoromethylsulfonyl)imide, C15H30F6N2O4S2, purity 99%
Compound 3: triethylsulfonium bis((trifluoromethyl)sulfonyl)amide, C8H15F6NO4S3, purity 99%
Compound 4: diethylmethylsulfonium bis[(trifluoromethyl)sulfonyl]imide, C7H13F6NO4S3, purity 99%

System: butyltrimethylammonium bis(trifluoromethylsulfonyl)imide; phases: Liquid
Fixed: Pressure, kPa = 101.325
Property: Mass density, kg/m3 (Liquid); method: Vibrating tube method
Temperature, K	Mass density, kg/m3	uncertainty
283.15	1407.8	.5
288.15	1403.2	.5
293.15	1398.7	.5
298.15	1394.2	.5
303.15	1389.8	.5
308.15	1385.4	.5
313.15	1381	.5
318.15	1376.6	.5
323.15	1372.3	.5
328.15	1368	.5
333.15	1363.7	.5
338.15	1359.5	.5
343.15	1355.2	.5
348.15	1351	.5
353.15	1346.8	.5

System: butyltrimethylammonium bis(trifluoromethylsulfonyl)imide; phases: Liquid
Fixed: Pressure, kPa = 101.325
Property: Viscosity, Pa*s (Liquid); method: Cone and plate viscometry
Temperature, K	Viscosity, Pa*s	uncertainty
283.15	.2542	.0008897
288.15	.1846	.0006461
293.15	.1377	.00048195
298.15	.1052	.0003682
303.15	.082	.000287
308.15	.0652	.0002282
313.15	.0527	.00018445
318.15	.0432	.0001512
323.15	.0359	.00012565
328.15	.0302	.0001057
333.15	.0257	.00008995
338.15	.022	.000077
343.15	.0191	.00006685
348.15	.0167	.00005845
353.15	.0147	.00005145

System: butyltrimethylammonium bis(trifluoromethylsulfonyl)imide; phases: Liquid
Fixed: Pressure, kPa = 101.325
Property: Refractive index (Na D-line) (Liquid); method: Standard Abbe refractometry
Temperature, K	Refractive index (Na D-line)	uncertainty
283.15	1.4122	.00002
288.15	1.41083	.00002
293.15	1.40945	.00002
298.15	1.40818	.00002
303.15	1.40676	.00002
308.15	1.40538	.00002
313.15	1.40405	.00002
318.15	1.40273	.00002
323.15	1.40142	.00002
328.15	1.40006	.00002
333.15	1.39877	.00002
338.15	1.39747	.00002
343.15	1.39616	.00002
348.15	1.39486	.00002
353.15	1.39358	.00002

System: butyltrimethylammonium bis(trifluoromethylsulfonyl)imide; phases: Liquid, Air at 1 atmosphere
Property: Surface tension liquid-gas, N/m (Liquid); method: Pendant drop shape
Temperature, K	Surface tension liquid-gas, N/m	uncertainty
293.2	.0334	.0001
298.2	.0332	.0001
303.2	.033	.0001
313.1	.0325	.0001
323.1	.032	.0001
333.1	.0315	.0001

System: tributylmethylammonium bis(trifluoromethylsulfonyl)imide; phases: Liquid
Fixed: Pressure, kPa = 101.325
Property: Mass density, kg/m3 (Liquid); method: Vibrating tube method
Temperature, K	Mass density, kg/m3	uncertainty
283.15	1276	.5
288.15	1271.7	.5
293.15	1267.3	.5
298.15	1262.8	.5
303.15	1258.4	.5
308.15	1254.1	.5
313.15	1249.9	.5
318.15	1245.8	.5
323.15	1241.7	.5
328.15	1237.6	.5
333.15	1233.6	.5
338.15	1229.5	.5
343.15	1225.5	.5
348.15	1221.5	.5
353.15	1217.5	.5

System: tributylmethylammonium bis(trifluoromethylsulfonyl)imide; phases: Liquid
Fixed: Pressure, kPa = 101.325
Property: Viscosity, Pa*s (Liquid); method: Cone and plate viscometry
Temperature, K	Viscosity, Pa*s	uncertainty
283.15	2.0498	.0071743
288.15	1.264	.004424
293.15	.8192	.0028672
298.15	.5389	.00188615
303.15	.3693	.00129255
308.15	.2604	.0009114
313.15	.1895	.00066325
318.15	.1396	.0004886
323.15	.1056	.0003696
328.15	.0815	.00028525
333.15	.0641	.00022435
338.15	.0511	.00017885
343.15	.0414	.0001449
348.15	.034	.000119
353.15	.0283	.00009905

System: tributylmethylammonium bis(trifluoromethylsulfonyl)imide; phases: Liquid
Fixed: Pressure, kPa = 101.325
Property: Refractive index (Na D-line) (Liquid); method: Standard Abbe refractometry
Temperature, K	Refractive index (Na D-line)	uncertainty
283.15	1.4308	.00002
288.15	1.42933	.00002
293.15	1.42787	.00002
298.15	1.42643	.00002
303.15	1.42491	.00002
308.15	1.42338	.00002
313.15	1.42194	.00002
318.15	1.42047	.00002
323.15	1.41902	.00002
328.15	1.41758	.00002
333.15	1.41613	.00002
338.15	1.41468	.00002
343.15	1.41324	.00002
348.15	1.4118	.00002
353.15	1.4104	.00002

System: tributylmethylammonium bis(trifluoromethylsulfonyl)imide; phases: Liquid, Air at 1 atmosphere
Property: Surface tension liquid-gas, N/m (Liquid); method: Pendant drop shape
Temperature, K	Surface tension liquid-gas, N/m	uncertainty
293.3	.0308	.0001
298.2	.0306	.0001
303.2	.0302	.0001
313.2	.0297	.0001
323.2	.0291	.0001

System: triethylsulfonium bis((trifluoromethyl)sulfonyl)amide; phases: Liquid
Fixed: Pressure, kPa = 101.325
Property: Mass density, kg/m3 (Liquid); method: Vibrating tube method
Temperature, K	Mass density, kg/m3	uncertainty
283.15	1477	.5
288.15	1472	.5
293.15	1467.1	.5
298.15	1462.1	.5
303.15	1457.3	.5
308.15	1452.4	.5
313.15	1447.6	.5
318.15	1442.8	.5
323.15	1438.1	.5
328.15	1433.4	.5
333.15	1428.7	.5
338.15	1424	.5
343.15	1419.4	.5
348.15	1414.8	.5
353.15	1410.2	.5

System: triethylsulfonium bis((trifluoromethyl)sulfonyl)amide; phases: Liquid
Fixed: Pressure, kPa = 101.325
Property: Viscosity, Pa*s (Liquid); method: Cone and plate viscometry
Temperature, K	Viscosity, Pa*s	uncertainty
283.15	.0644	.0002254
288.15	.0511	.00017885
293.15	.0411	.00014385
298.15	.0339	.00011865
303.15	.0282	.0000987
308.15	.0238	.0000833
313.15	.0203	.00007105
318.15	.0175	.00006125
323.15	.0152	.0000532
328.15	.0134	.0000469
333.15	.0118	.0000413
338.15	.0105	.00003675
343.15	.0094	.0000329
348.15	.0085	.00002975
353.15	.0077	.00002695

System: triethylsulfonium bis((trifluoromethyl)sulfonyl)amide; phases: Liquid
Fixed: Pressure, kPa = 101.325
Property: Refractive index (Na D-line) (Liquid); method: Standard Abbe refractometry
Temperature, K	Refractive index (Na D-line)	uncertainty
283.15	1.43056	.00002
288.15	1.42906	.00002
293.15	1.42765	.00002
298.15	1.42632	.00002
303.15	1.42472	.00002
308.15	1.42325	.00002
313.15	1.42185	.00002
318.15	1.42044	.00002
323.15	1.41906	.00002
328.15	1.41767	.00002
333.15	1.41629	.00002
338.15	1.4149	.00002
343.15	1.41353	.00002
348.15	1.41215	.00002
353.15	1.41077	.00002

System: triethylsulfonium bis((trifluoromethyl)sulfonyl)amide; phases: Liquid, Air at 1 atmosphere
Property: Surface tension liquid-gas, N/m (Liquid); method: Pendant drop shape
Temperature, K	Surface tension liquid-gas, N/m	uncertainty
293.3	.0355	.0001
298.2	.0352	.0001
303.2	.035	.0001
313.1	.0344	.0001
323	.034	.0001
333.1	.0334	.0001
343.1	.0329	.0001

System: diethylmethylsulfonium bis[(trifluoromethyl)sulfonyl]imide; phases: Liquid
Fixed: Pressure, kPa = 101.325
Property: Mass density, kg/m3 (Liquid); method: Vibrating tube method
Temperature, K	Mass density, kg/m3	uncertainty
283.15	1517.3	.5
288.15	1512.2	.5
293.15	1507.2	.5
298.15	1502.3	.5
303.15	1497.3	.5
308.15	1492.4	.5
313.15	1487.6	.5
318.15	1482.8	.5
323.15	1478	.5
328.15	1473.2	.5
333.15	1468.5	.5
338.15	1463.8	.5
343.15	1459.1	.5
348.15	1454.5	.5
353.15	1449.8	.5

System: diethylmethylsulfonium bis[(trifluoromethyl)sulfonyl]imide; phases: Liquid
Fixed: Pressure, kPa = 101.325
Property: Viscosity, Pa*s (Liquid); method: Cone and plate viscometry
Temperature, K	Viscosity, Pa*s	uncertainty
283.15	.0783	.00027405
288.15	.0621	.00021735
293.15	.0499	.00017465
298.15	.0411	.00014385
303.15	.0341	.00011935
308.15	.0287	.00010045
313.15	.0244	.0000854
318.15	.021	.0000735
323.15	.0182	.0000637
328.15	.0159	.00005565
333.15	.014	.000049
338.15	.0125	.00004375
343.15	.0111	.00003885
348.15	.01	.000035
353.15	.009	.0000315

System: diethylmethylsulfonium bis[(trifluoromethyl)sulfonyl]imide; phases: Liquid
Fixed: Pressure, kPa = 101.325
Property: Refractive index (Na D-line) (Liquid); method: Standard Abbe refractometry
Temperature, K	Refractive index (Na D-line)	uncertainty
283.15	1.42745	.00002
288.15	1.42597	.00002
293.15	1.42452	.00002
298.15	1.42325	.00002
303.15	1.42168	.00002
308.15	1.42026	.00002
313.15	1.41886	.00002
318.15	1.41744	.00002
323.15	1.41606	.00002
328.15	1.41468	.00002
333.15	1.41331	.00002
338.15	1.41195	.00002
343.15	1.41058	.00002
348.15	1.40925	.00002
353.15	1.40793	.00002

System: diethylmethylsulfonium bis[(trifluoromethyl)sulfonyl]imide; phases: Liquid, Air at 1 atmosphere
Property: Surface tension liquid-gas, N/m (Liquid); method: Pendant drop shape
Temperature, K	Surface tension liquid-gas, N/m	uncertainty
293.2	.0357	.0001
298.2	.0355	.0001
303.2	.0353	.0001
313.1	.0348	.0001
323.1	.0344	.0001
333.1	.0339	.0001
343.1	.0334	.0001
