Measured thermophysical data. Phase equilibria of triolein to biodiesel reactor systems
Source: Fluid Phase Equilib., 2016, 10.1016/j.fluid.2015.09.049
Compound 1: methanol, CH4O
Compound 2: methyl oleate, C19H36O2
Compound 3: 1,2,3-tri(cis-9-octadecenoyl)glycerol, C57H104O6
Compound 4: glycerol, C3H8O3
Compound 5: water, H2O

System: methanol + methyl oleate; phases: Liquid, Gas
Fixed: Pressure, kPa = 101
Property: Boiling temperature at pressure P, K (Liquid); method: Ebulliometric method (Recirculating still)
Mole fraction of methanol	Boiling temperature at pressure P, K	uncertainty
.672	342.25	.1
.484	346.95	.1
.346	356.75	.1
.239	362.65	.1
.145	372.85	.1
.104	384.15	.1
.0759	394.65	.1
.0528	414.85	.1
.0552	435.15	.1

System: methanol + methyl oleate; phases: Gas, Liquid
Fixed: Pressure, kPa = 101
Property: Mole fraction of methanol (Gas); method: Chromatography
Mole fraction of methanol	Mole fraction of methanol	uncertainty
.672	.9997	
.484	.9997	
.346	.9986	
.239	.9992	
.145	.999	
.104	.9985	
.0759	.9978	
.0528	.9972	
.0552	.9964	

System: methanol + 1,2,3-tri(cis-9-octadecenoyl)glycerol; phases: Liquid mixture 1, Liquid mixture 2
Fixed: Pressure, kPa = 101
Property: Mole fraction of methanol (Liquid mixture 1); method: Chromatography
Temperature, K	Mole fraction of methanol	uncertainty
303.15	.999924	
303.15	.999912	
303.15	.999912	
308.15	.99989	
308.15	.999853	
308.15	.999852	
313.15	.999918	
313.15	.999872	
318.15	.999882	
318.15	.99988	
318.15	.99986	
313.15	.999695	
328.15	.999832	
328.15	.999741	
333.15	.999827	
333.15	.999793	

System: glycerol + methyl oleate; phases: Liquid mixture 1, Liquid mixture 2
Fixed: Pressure, kPa = 101
Property: Mole fraction of glycerol (Liquid mixture 1); method: Chromatography
Temperature, K	Mole fraction of glycerol	uncertainty
323.15	.00389	
333.15	.00317	
333.15	.00309	
343.15	.00513	
343.15	.00419	
353.15	.0051	
353.15	.00542	
363.15	.00627	
363.15	.0069	
373.15	.00993	
373.15	.00906	
383.15	.0121	
383.15	.0128	

System: glycerol + methyl oleate; phases: Liquid mixture 2, Liquid mixture 1
Fixed: Pressure, kPa = 101
Property: Mole fraction of glycerol (Liquid mixture 2); method: Chromatography
Temperature, K	Mole fraction of glycerol	uncertainty
323.15	.9889	
333.15	.99189	
333.15	.99682	
343.15	.9986	
343.15	.99878	
353.15	.99624	
353.15	.99208	
363.15	.99793	
363.15	.9839	
373.15	.9953	
373.15	.9555	
383.15	.999792	
383.15	.99728	

System: glycerol + 1,2,3-tri(cis-9-octadecenoyl)glycerol; phases: Liquid mixture 1, Liquid mixture 2
Fixed: Pressure, kPa = 101
Property: Mole fraction of 1,2,3-tri(cis-9-octadecenoyl)glycerol (Liquid mixture 1); method: Chromatography
Temperature, K	Mole fraction of 1,2,3-tri(cis-9-octadecenoyl)glycerol	uncertainty
323.15	.000421	
333.15	.0252	
343.15	.00255	
343.15	.0134	
353.15	.00459	
363.15	.00224	
383.15	.00082	
383.15	.000767	

System: glycerol + 1,2,3-tri(cis-9-octadecenoyl)glycerol; phases: Liquid mixture 2, Liquid mixture 1
Fixed: Pressure, kPa = 101
Property: Mole fraction of 1,2,3-tri(cis-9-octadecenoyl)glycerol (Liquid mixture 2); method: Chromatography
Temperature, K	Mole fraction of 1,2,3-tri(cis-9-octadecenoyl)glycerol	uncertainty
323.15	.99694	
333.15	.99501	
343.15	.99284	
343.15	.99441	
353.15	.99287	
363.15	.99281	
383.15	.9809	
383.15	.9746	

System: 1,2,3-tri(cis-9-octadecenoyl)glycerol + water; phases: Liquid mixture 1, Liquid mixture 2
Fixed: Pressure, kPa = 101
Property: Mole fraction of water (Liquid mixture 1); method: Chromatography
Temperature, K	Mole fraction of water	uncertainty
323.15	.999813	
333.15	.9999604	
333.15	.99999101	
333.15	.999767	
341.15	.9999817	
341.15	.9999938	
341.15	.999989	
348.15	.99998	
348.15	.99994	
348.15	.999997	
355.15	.99998	
355.15	.9999925	
355.15	.9999799	
363.15	.9999824	
363.15	.999993	
