Measured thermophysical data. Phase behaviour of 1-butyl-1-methylpyrrolidinium thiocyanate ionic liquid
Source: Fluid Phase Equilib., 2011, 10.1016/j.fluid.2011.06.012
Compound 1: 1-butyl-1-methylpyrrolidinium thiocyanate, C10H20N2S, purity 98%
Compound 2: 1-hexanol, C6H14O
Compound 3: 1-heptanol, C7H16O
Compound 4: 1-octanol, C8H18O
Compound 5: 1-nonanol, C9H20O
Compound 6: 1-decanol, C10H22O
Compound 7: 1-undecanol, C11H24O
Compound 8: 1-dodecanol, C12H26O
Compound 9: water, H2O, purity 99.8%
Compound 10: hexane, C6H14
Compound 11: heptane, C7H16
Compound 12: octane, C8H18
Compound 13: cyclohexane, C6H12
Compound 14: cycloheptane, C7H14
Compound 15: benzene, C6H6
Compound 16: toluene, C7H8
Compound 17: ethylbenzene, C8H10

System: 1-butyl-1-methylpyrrolidinium thiocyanate; phases: Liquid
Fixed: Pressure, kPa = 101.325
Property: Mass density, kg/m3 (Liquid); method: Vibrating tube method
Temperature, K	Mass density, kg/m3	uncertainty
298.15	1024.77	1

System: 1-butyl-1-methylpyrrolidinium thiocyanate; phases: Crystal 1, Liquid, Air at 1 atmosphere
Property: Normal melting temperature, K (Crystal 1); method: DSC/DTA
Normal melting temperature, K	uncertainty
295.4	.4

System: 1-butyl-1-methylpyrrolidinium thiocyanate; phases: Crystal 2, Crystal 1, Gas
Property: Triple point temperature, K (Crystal 2); method: DSC/DTA
Triple point temperature, K	uncertainty
245.3	.04

System: 1-butyl-1-methylpyrrolidinium thiocyanate; phases: Crystal 2, Crystal 1, Air at 1 atmosphere
Property: Molar enthalpy of transition or fusion, kJ/mol (Crystal 2); method: DSC/DTA
Molar enthalpy of transition or fusion, kJ/mol	uncertainty
8.68	.05

System: 1-butyl-1-methylpyrrolidinium thiocyanate; phases: Crystal 1, Liquid, Air at 1 atmosphere
Property: Molar enthalpy of transition or fusion, kJ/mol (Crystal 1); method: DSC/DTA
Molar enthalpy of transition or fusion, kJ/mol	uncertainty
2.056	.05

System: 1-butyl-1-methylpyrrolidinium thiocyanate; phases: Liquid
Fixed: Pressure, kPa = 101.325
Property: Viscosity, Pa*s (Liquid); method: Cone and plate viscometry
Temperature, K	Viscosity, Pa*s	uncertainty
298.15	.10946	.00010946

System: 1-hexanol + 1-butyl-1-methylpyrrolidinium thiocyanate; phases: Crystal, Crystal, Liquid mixture 1, Air at 1 atmosphere
Fixed: Pressure, kPa = 101.325
Property: Eutectic composition: mole fraction of 1-butyl-1-methylpyrrolidinium thiocyanate (Crystal); method: Derived from phase diagram analysis
Eutectic composition: mole fraction of 1-butyl-1-methylpyrrolidinium thiocyanate	uncertainty
.2096	.0005

System: 1-hexanol + 1-butyl-1-methylpyrrolidinium thiocyanate; phases: Crystal, Crystal, Liquid mixture 1, Air at 1 atmosphere
Fixed: Pressure, kPa = 101.325
Property: Eutectic temperature, K (Crystal); method: Derived from phase diagram analysis
Eutectic temperature, K	uncertainty
226.3	.4

System: 1-hexanol + 1-butyl-1-methylpyrrolidinium thiocyanate; phases: Liquid mixture 1, Crystal
Fixed: Pressure, kPa = 101
Property: Solid-liquid equilibrium temperature, K (Liquid mixture 1); method: Visual observation
Mole fraction of 1-butyl-1-methylpyrrolidinium thiocyanate	Solid-liquid equilibrium temperature, K	uncertainty
1	295.8	.4
.9852	294.7	.4
.9704	292.2	.4
.9258	284.8	.4
.8396	272.5	.4
.7151	260.5	.4
.6205	251.6	.4
.5637	245.6	.4
.5094	242.1	.4
.4222	237.7	.4
.3549	233.7	.4
.3067	231.4	.4
.2657	229	.4
.2096	226.3	.4
.1281	226.9	.4
.0933	227.6	.4
.0321	227.9	.4
0	228.2	.4

System: 1-heptanol + 1-butyl-1-methylpyrrolidinium thiocyanate; phases: Crystal, Crystal, Liquid mixture 1, Air at 1 atmosphere
Fixed: Pressure, kPa = 101.325
Property: Eutectic composition: mole fraction of 1-butyl-1-methylpyrrolidinium thiocyanate (Crystal); method: Derived from phase diagram analysis
Eutectic composition: mole fraction of 1-butyl-1-methylpyrrolidinium thiocyanate	uncertainty
.2829	.0005

System: 1-heptanol + 1-butyl-1-methylpyrrolidinium thiocyanate; phases: Crystal, Crystal, Liquid mixture 1, Air at 1 atmosphere
Fixed: Pressure, kPa = 101.325
Property: Eutectic temperature, K (Crystal); method: Derived from phase diagram analysis
Eutectic temperature, K	uncertainty
237	.4

System: 1-heptanol + 1-butyl-1-methylpyrrolidinium thiocyanate; phases: Liquid mixture 1, Crystal
Fixed: Pressure, kPa = 101
Property: Solid-liquid equilibrium temperature, K (Liquid mixture 1); method: Visual observation
Mole fraction of 1-butyl-1-methylpyrrolidinium thiocyanate	Solid-liquid equilibrium temperature, K	uncertainty
1	295.8	.4
.9228	286.9	.4
.7833	274.2	.4
.6855	264.7	.4
.5969	258.6	.4
.664	262.7	.4
.5833	257.3	.4
.5201	251.8	.4
.4731	247.2	.4
.4502	245.7	.4
.3887	242.3	.4
.2829	237	.4
.2248	237.7	.4
.1706	238	.4
.1212	238.2	.4
.0799	238.3	.4
.0534	238.4	.4
0	238.6	.4

System: 1-octanol + 1-butyl-1-methylpyrrolidinium thiocyanate; phases: Crystal, Crystal, Liquid mixture 1, Air at 1 atmosphere
Fixed: Pressure, kPa = 101.325
Property: Eutectic composition: mole fraction of 1-butyl-1-methylpyrrolidinium thiocyanate (Crystal); method: Derived from phase diagram analysis
Eutectic composition: mole fraction of 1-butyl-1-methylpyrrolidinium thiocyanate	uncertainty
.4364	.0005

System: 1-octanol + 1-butyl-1-methylpyrrolidinium thiocyanate; phases: Crystal, Crystal, Liquid mixture 1, Air at 1 atmosphere
Fixed: Pressure, kPa = 101.325
Property: Eutectic temperature, K (Crystal); method: Derived from phase diagram analysis
Eutectic temperature, K	uncertainty
255.2	.4

System: 1-octanol + 1-butyl-1-methylpyrrolidinium thiocyanate; phases: Liquid mixture 1, Crystal
Fixed: Pressure, kPa = 101
Property: Solid-liquid equilibrium temperature, K (Liquid mixture 1); method: Visual observation
Mole fraction of 1-butyl-1-methylpyrrolidinium thiocyanate	Solid-liquid equilibrium temperature, K	uncertainty
1	295.8	.4
.9852	293.8	.4
.9407	289.8	.4
.8477	283.7	.4
.7622	275.7	.4
.7014	271.7	.4
.6457	267.4	.4
.5785	263	.4
.5084	258	.4
.4364	255.2	.4
.3715	256.4	.4
.317	256.8	.4
.3556	256.5	.4
.2524	257.2	.4
.1901	257.6	.4
.106	258	.4
0	257.2	.4

System: 1-nonanol + 1-butyl-1-methylpyrrolidinium thiocyanate; phases: Crystal, Crystal, Liquid mixture 1, Air at 1 atmosphere
Fixed: Pressure, kPa = 101.325
Property: Eutectic composition: mole fraction of 1-butyl-1-methylpyrrolidinium thiocyanate (Crystal); method: Derived from phase diagram analysis
Eutectic composition: mole fraction of 1-butyl-1-methylpyrrolidinium thiocyanate	uncertainty
.5214	.0005

System: 1-nonanol + 1-butyl-1-methylpyrrolidinium thiocyanate; phases: Crystal, Crystal, Liquid mixture 1, Air at 1 atmosphere
Fixed: Pressure, kPa = 101.325
Property: Eutectic temperature, K (Crystal); method: Derived from phase diagram analysis
Eutectic temperature, K	uncertainty
267	.4

System: 1-nonanol + 1-butyl-1-methylpyrrolidinium thiocyanate; phases: Liquid mixture 1, Crystal
Fixed: Pressure, kPa = 101
Property: Solid-liquid equilibrium temperature, K (Liquid mixture 1); method: Visual observation
Mole fraction of 1-butyl-1-methylpyrrolidinium thiocyanate	Solid-liquid equilibrium temperature, K	uncertainty
1	295.8	.4
.9759	294.3	.4
.9531	292.7	.4
.9195	290.1	.4
.8695	287	.4
.8198	284	.4
.7589	279.5	.4
.6793	275.9	.4
.5898	270.8	.4
.5214	267	.4
.4511	267.3	.4
.4086	267.5	.4
.362	267.6	.4
.3242	267.8	.4
.2754	267.9	.4
.1862	268.1	.4
.1202	268.1	.4
0	268.1	.4

System: 1-decanol + 1-butyl-1-methylpyrrolidinium thiocyanate; phases: Crystal, Crystal, Liquid mixture 1, Air at 1 atmosphere
Fixed: Pressure, kPa = 101.325
Property: Eutectic composition: mole fraction of 1-butyl-1-methylpyrrolidinium thiocyanate (Crystal); method: Derived from phase diagram analysis
Eutectic composition: mole fraction of 1-butyl-1-methylpyrrolidinium thiocyanate	uncertainty
.5798	.0005

System: 1-decanol + 1-butyl-1-methylpyrrolidinium thiocyanate; phases: Crystal, Crystal, Liquid mixture 1, Air at 1 atmosphere
Fixed: Pressure, kPa = 101.325
Property: Eutectic temperature, K (Crystal); method: Derived from phase diagram analysis
Eutectic temperature, K	uncertainty
275.8	.4

System: 1-decanol + 1-butyl-1-methylpyrrolidinium thiocyanate; phases: Liquid mixture 1, Crystal
Fixed: Pressure, kPa = 101
Property: Solid-liquid equilibrium temperature, K (Liquid mixture 1); method: Visual observation
Mole fraction of 1-butyl-1-methylpyrrolidinium thiocyanate	Solid-liquid equilibrium temperature, K	uncertainty
1	295.8	.4
.9794	295	.4
.9544	293.8	.4
.9376	292.9	.4
.902	291	.4
.8525	288.6	.4
.8086	286.4	.4
.7535	284	.4
.7172	282.4	.4
.6647	280.2	.4
.6016	276.9	.4
.5798	275.8	.4
.5318	276.5	.4
.4717	277.4	.4
.4294	278	.4
.3863	278.4	.4
.353	278.8	.4
.3167	279.1	.4
.2698	279.5	.4
.2237	279.7	.4
.1587	280	.4
.0941	280.1	.4
0	280	.4

System: 1-undecanol + 1-butyl-1-methylpyrrolidinium thiocyanate; phases: Crystal, Crystal, Liquid mixture 1, Air at 1 atmosphere
Fixed: Pressure, kPa = 101.325
Property: Eutectic composition: mole fraction of 1-butyl-1-methylpyrrolidinium thiocyanate (Crystal); method: Derived from phase diagram analysis
Eutectic composition: mole fraction of 1-butyl-1-methylpyrrolidinium thiocyanate	uncertainty
.6064	.0005

System: 1-undecanol + 1-butyl-1-methylpyrrolidinium thiocyanate; phases: Crystal, Crystal, Liquid mixture 1, Air at 1 atmosphere
Fixed: Pressure, kPa = 101.325
Property: Eutectic temperature, K (Crystal); method: Derived from phase diagram analysis
Eutectic temperature, K	uncertainty
279.2	.4

System: 1-undecanol + 1-butyl-1-methylpyrrolidinium thiocyanate; phases: Liquid mixture 1, Crystal
Fixed: Pressure, kPa = 101
Property: Solid-liquid equilibrium temperature, K (Liquid mixture 1); method: Visual observation
Mole fraction of 1-butyl-1-methylpyrrolidinium thiocyanate	Solid-liquid equilibrium temperature, K	uncertainty
1	295.8	.4
.9909	295.7	.4
.969	295	.4
.9252	294	.4
.8346	291.2	.4
.754	287.4	.4
.6809	283.8	.4
.6064	279.2	.4
.5434	279.9	.4
.5005	280.3	.4
.4478	280.9	.4
.3899	281.6	.4
.3247	282.3	.4
.267	282.7	.4
.1847	283.3	.4
.1211	283.8	.4
0	284.2	.4

System: 1-dodecanol + 1-butyl-1-methylpyrrolidinium thiocyanate; phases: Crystal, Crystal, Liquid mixture 1, Air at 1 atmosphere
Fixed: Pressure, kPa = 101.325
Property: Eutectic composition: mole fraction of 1-butyl-1-methylpyrrolidinium thiocyanate (Crystal); method: Derived from phase diagram analysis
Eutectic composition: mole fraction of 1-butyl-1-methylpyrrolidinium thiocyanate	uncertainty
.7037	.0005

System: 1-dodecanol + 1-butyl-1-methylpyrrolidinium thiocyanate; phases: Crystal, Crystal, Liquid mixture 1, Air at 1 atmosphere
Fixed: Pressure, kPa = 101.325
Property: Eutectic temperature, K (Crystal); method: Derived from phase diagram analysis
Eutectic temperature, K	uncertainty
290.2	.4

System: 1-dodecanol + 1-butyl-1-methylpyrrolidinium thiocyanate; phases: Liquid mixture 1, Crystal
Fixed: Pressure, kPa = 101
Property: Solid-liquid equilibrium temperature, K (Liquid mixture 1); method: Visual observation
Mole fraction of 1-butyl-1-methylpyrrolidinium thiocyanate	Solid-liquid equilibrium temperature, K	uncertainty
1	295.8	.4
.9482	294.8	.4
.8713	293.6	.4
.7982	292.4	.4
.7601	291.6	.4
.7037	290.2	.4
.6749	290.8	.4
.5879	291.8	.4
.5201	292.6	.4
.4539	293.3	.4
.3197	294.4	.4
.2391	295.2	.4
.1476	296	.4
.0645	296.7	.4
0	297.1	.4

System: water + 1-butyl-1-methylpyrrolidinium thiocyanate; phases: Crystal, Crystal, Liquid mixture 1, Air at 1 atmosphere
Fixed: Pressure, kPa = 101.325
Property: Eutectic composition: mole fraction of 1-butyl-1-methylpyrrolidinium thiocyanate (Crystal); method: Derived from phase diagram analysis
Eutectic composition: mole fraction of 1-butyl-1-methylpyrrolidinium thiocyanate	uncertainty
.458	.0005

System: water + 1-butyl-1-methylpyrrolidinium thiocyanate; phases: Crystal, Crystal, Liquid mixture 1, Air at 1 atmosphere
Fixed: Pressure, kPa = 101.325
Property: Eutectic temperature, K (Crystal); method: Derived from phase diagram analysis
Eutectic temperature, K	uncertainty
180.5	.4

System: water + 1-butyl-1-methylpyrrolidinium thiocyanate; phases: Liquid mixture 1, Crystal
Fixed: Pressure, kPa = 101
Property: Solid-liquid equilibrium temperature, K (Liquid mixture 1); method: Visual observation
Mole fraction of 1-butyl-1-methylpyrrolidinium thiocyanate	Solid-liquid equilibrium temperature, K	uncertainty
1	299.8	.4
.9488	287.2	.4
.9246	281.9	.4
.8894	275.2	.4
.8673	270.7	.4
.8384	265.2	.4
.8066	259.4	.4
.779	254.6	.4
.7669	252.4	.4
.7484	248.8	.4
.7277	245.6	.4
.2943	235.7	.4
.2738	241.4	.4
.2576	245.5	.4
.2425	248.2	.4
.2251	252.1	.4
.2073	255.3	.4
.1791	260	.4
.1588	262.5	.4
.1393	264.8	.4
.1131	267.1	.4
.0955	268.4	.4
.0734	269.8	.4
.0583	270.5	.4
.0385	271.4	.4
.021	272.1	.4
0	273.2	.4

System: hexane + 1-butyl-1-methylpyrrolidinium thiocyanate; phases: Liquid mixture 1, Crystal
Fixed: Pressure, kPa = 101
Property: Solid-liquid equilibrium temperature, K (Liquid mixture 1); method: Visual observation
Mole fraction of 1-butyl-1-methylpyrrolidinium thiocyanate	Solid-liquid equilibrium temperature, K	uncertainty
1	295.8	.4
.9924	295.3	.4
.9807	294.5	.4
.9662	294.5	.4
.9441	294.5	.4
.9367	294.5	.4
.924	294.5	.4
.906	294.5	.4
.8879	294.5	.4
.8765	294.5	.4

System: hexane + 1-butyl-1-methylpyrrolidinium thiocyanate; phases: Liquid mixture 1, Liquid mixture 2
Fixed: Pressure, kPa = 101
Property: Liquid-liquid equilibrium temperature, K (Liquid mixture 1); method: Visual observation
Mole fraction of 1-butyl-1-methylpyrrolidinium thiocyanate	Liquid-liquid equilibrium temperature, K	uncertainty
.9807	304.3	.4
.9662	317.7	.4
.9441	337.5	.4
.9367	343	.4
.924	349.3	.4
.906	358.1	.4
.8879	364.1	.4
.8765	368	.4

System: heptane + 1-butyl-1-methylpyrrolidinium thiocyanate; phases: Liquid mixture 1, Crystal
Fixed: Pressure, kPa = 101
Property: Solid-liquid equilibrium temperature, K (Liquid mixture 1); method: Visual observation
Mole fraction of 1-butyl-1-methylpyrrolidinium thiocyanate	Solid-liquid equilibrium temperature, K	uncertainty
1	295.8	.4
.9922	295.3	.4
.9883	295.3	.4
.985	295.3	.4
.9783	295.3	.4
.9695	295.3	.4
.9654	295.3	.4
.9577	295.3	.4
.9455	295.3	.4
.9347	295.3	.4

System: heptane + 1-butyl-1-methylpyrrolidinium thiocyanate; phases: Liquid mixture 1, Liquid mixture 2
Fixed: Pressure, kPa = 101
Property: Liquid-liquid equilibrium temperature, K (Liquid mixture 1); method: Visual observation
Mole fraction of 1-butyl-1-methylpyrrolidinium thiocyanate	Liquid-liquid equilibrium temperature, K	uncertainty
.9922	310.9	.4
.9883	322.3	.4
.985	329.7	.4
.9783	339.7	.4
.9695	352.2	.4
.9654	356.3	.4
.9577	364	.4
.9455	372.5	.4
.9347	379.5	.4

System: octane + 1-butyl-1-methylpyrrolidinium thiocyanate; phases: Liquid mixture 1, Crystal
Fixed: Pressure, kPa = 101
Property: Solid-liquid equilibrium temperature, K (Liquid mixture 1); method: Visual observation
Mole fraction of 1-butyl-1-methylpyrrolidinium thiocyanate	Solid-liquid equilibrium temperature, K	uncertainty
1	295.8	.4
.9958	295.5	.4
.9912	295.5	.4
.9891	295.5	.4
.9841	295.5	.4
.9711	295.5	.4
.9585	295.5	.4

System: octane + 1-butyl-1-methylpyrrolidinium thiocyanate; phases: Liquid mixture 1, Liquid mixture 2
Fixed: Pressure, kPa = 101
Property: Liquid-liquid equilibrium temperature, K (Liquid mixture 1); method: Visual observation
Mole fraction of 1-butyl-1-methylpyrrolidinium thiocyanate	Liquid-liquid equilibrium temperature, K	uncertainty
.9958	312.3	.4
.9912	335.5	.4
.9891	342.2	.4
.9841	352.9	.4
.9711	377.8	.4
.9585	392.1	.4

System: cyclohexane + 1-butyl-1-methylpyrrolidinium thiocyanate; phases: Liquid mixture 1, Crystal
Fixed: Pressure, kPa = 101
Property: Solid-liquid equilibrium temperature, K (Liquid mixture 1); method: Visual observation
Mole fraction of 1-butyl-1-methylpyrrolidinium thiocyanate	Solid-liquid equilibrium temperature, K	uncertainty
1	295.8	.4
.9862	294.6	.4
.9732	294.1	.4
.9611	294.1	.4
.9474	294.1	.4
.9351	294.1	.4
.9233	294.1	.4
.9118	294.1	.4

System: cyclohexane + 1-butyl-1-methylpyrrolidinium thiocyanate; phases: Liquid mixture 1, Liquid mixture 2
Fixed: Pressure, kPa = 101
Property: Liquid-liquid equilibrium temperature, K (Liquid mixture 1); method: Visual observation
Mole fraction of 1-butyl-1-methylpyrrolidinium thiocyanate	Liquid-liquid equilibrium temperature, K	uncertainty
.9732	308.7	.4
.9611	325.8	.4
.9474	344.8	.4
.9351	359.5	.4
.9233	372.3	.4
.9118	382.1	.4

System: cycloheptane + 1-butyl-1-methylpyrrolidinium thiocyanate; phases: Liquid mixture 1, Crystal
Fixed: Pressure, kPa = 101
Property: Solid-liquid equilibrium temperature, K (Liquid mixture 1); method: Visual observation
Mole fraction of 1-butyl-1-methylpyrrolidinium thiocyanate	Solid-liquid equilibrium temperature, K	uncertainty
1	295.8	.4
.9886	294.7	.4
.9763	294.6	.4
.962	294.6	.4
.9509	294.6	.4
.9401	294.6	.4
.9285	294.6	.4

System: cycloheptane + 1-butyl-1-methylpyrrolidinium thiocyanate; phases: Liquid mixture 1, Liquid mixture 2
Fixed: Pressure, kPa = 101
Property: Liquid-liquid equilibrium temperature, K (Liquid mixture 1); method: Visual observation
Mole fraction of 1-butyl-1-methylpyrrolidinium thiocyanate	Liquid-liquid equilibrium temperature, K	uncertainty
.9763	308.8	.4
.962	338.2	.4
.9509	357.3	.4
.9401	373.5	.4
.9285	387.8	.4

System: benzene + 1-butyl-1-methylpyrrolidinium thiocyanate; phases: Liquid mixture 1, Crystal
Fixed: Pressure, kPa = 101
Property: Solid-liquid equilibrium temperature, K (Liquid mixture 1); method: Visual observation
Mole fraction of 1-butyl-1-methylpyrrolidinium thiocyanate	Solid-liquid equilibrium temperature, K	uncertainty
1	295.8	.4
.9816	294.4	.4
.9537	290.1	.4
.9323	286.5	.4
.9113	283.8	.4
.8675	275.8	.4
.8533	273.5	.4
.8314	270.7	.4
.7991	265.8	.4
.7661	261.3	.4
.7244	255.2	.4
.6953	252.8	.4
.6694	248.8	.4
.641	247	.4
.6154	250.5	.4
.5882	253.9	.4
.549	258.8	.4
.5358	260.4	.4
.5202	262.5	.4
.4996	265.4	.4
.4799	267.5	.4
.4514	271.1	.4
.426	273	.4
.4068	274.8	.4
.3984	276.3	.4
.3967	276.3	.4
.3889	276.3	.4
.3834	276.3	.4
.3775	276.3	.4
.3684	276.3	.4
.3632	276.3	.4
.3526	276.3	.4

System: benzene + 1-butyl-1-methylpyrrolidinium thiocyanate; phases: Liquid mixture 1, Liquid mixture 2
Fixed: Pressure, kPa = 101
Property: Liquid-liquid equilibrium temperature, K (Liquid mixture 1); method: Visual observation
Mole fraction of 1-butyl-1-methylpyrrolidinium thiocyanate	Liquid-liquid equilibrium temperature, K	uncertainty
.3984	351	.4
.3967	343.2	.4
.3889	326.6	.4
.3834	315.7	.4
.3775	308.6	.4
.3684	298.4	.4
.3632	291.8	.4
.3526	280	.4

System: toluene + 1-butyl-1-methylpyrrolidinium thiocyanate; phases: Liquid mixture 1, Crystal
Fixed: Pressure, kPa = 101
Property: Solid-liquid equilibrium temperature, K (Liquid mixture 1); method: Visual observation
Mole fraction of 1-butyl-1-methylpyrrolidinium thiocyanate	Solid-liquid equilibrium temperature, K	uncertainty
1	295.8	.4
.9907	294.7	.4
.9626	290.9	.4
.9429	287.7	.4
.9319	286	.4
.9011	281.7	.4
.8954	280.8	.4
.864	275.7	.4
.8607	274.9	.4
.8215	270	.4
.8031	266.7	.4
.757	260.6	.4
.7142	255.1	.4
.6724	251.8	.4
.6278	249.3	.4
.6152	249.3	.4
.6017	249.3	.4
.5923	249.3	.4
.5808	249.3	.4
.5747	249.3	.4
.567	249.3	.4

System: toluene + 1-butyl-1-methylpyrrolidinium thiocyanate; phases: Liquid mixture 1, Liquid mixture 2
Fixed: Pressure, kPa = 101
Property: Liquid-liquid equilibrium temperature, K (Liquid mixture 1); method: Visual observation
Mole fraction of 1-butyl-1-methylpyrrolidinium thiocyanate	Liquid-liquid equilibrium temperature, K	uncertainty
.6152	364.8	.4
.6017	333.2	.4
.5923	309.3	.4
.5808	278	.4
.5747	266.8	.4
.567	253.8	.4

System: ethylbenzene + 1-butyl-1-methylpyrrolidinium thiocyanate; phases: Liquid mixture 1, Crystal
Fixed: Pressure, kPa = 101
Property: Solid-liquid equilibrium temperature, K (Liquid mixture 1); method: Visual observation
Mole fraction of 1-butyl-1-methylpyrrolidinium thiocyanate	Solid-liquid equilibrium temperature, K	uncertainty
1	295.8	.4
.9851	293.8	.4
.9633	290.8	.4
.9491	288.7	.4
.9263	284.6	.4
.9164	283.1	.4
.9025	280.8	.4
.8877	278.7	.4
.8651	273.8	.4
.8506	271.8	.4
.8375	271.8	.4
.8234	271.8	.4
.7979	271.8	.4

System: ethylbenzene + 1-butyl-1-methylpyrrolidinium thiocyanate; phases: Liquid mixture 1, Liquid mixture 2
Fixed: Pressure, kPa = 101
Property: Liquid-liquid equilibrium temperature, K (Liquid mixture 1); method: Visual observation
Mole fraction of 1-butyl-1-methylpyrrolidinium thiocyanate	Liquid-liquid equilibrium temperature, K	uncertainty
.8506	371.3	.4
.8375	345.8	.4
.8234	319.2	.4
.7979	278.3	.4
