Measured thermophysical data. Effect of structural alteration of ionic liquid on their bulk and molecular level interactions with ethylene glycol
Source: Fluid Phase Equilib., 2013, 10.1016/j.fluid.2013.08.029
Compound 1: 1-methylimidazole, C4H6N2, purity 99%
Compound 2: 1-bromopentane, C5H11Br, purity 99%
Compound 3: ethylene glycol, C2H6O2, purity 99.5%
Compound 4: sodium tetrafluoroborate, BF4Na, purity 98%
Compound 5: diethyl ether, C4H10O, purity 99%
Compound 6: dichloromethane, CH2Cl2, purity 99%
Compound 7: 1-pentyl-3-methylimidazolium bromide, C9H17BrN2, purity 98%
Compound 8: 1-methyl-3-pentyl-imidazolium tetrafluoroborate, C9H17BF4N2, purity 98%
Compound 9: 1-butyl-2,3-dimethylimidazolium tetrafluoroborate, C9H17BF4N2, purity 99.8%

System: ethylene glycol; phases: Liquid
Fixed: Pressure, kPa = 101.325
Property: Mass density, kg/m3 (Liquid); method: Vibrating tube method
Temperature, K	Mass density, kg/m3	uncertainty
288.15	1116.836	.05
293.15	1113.346	.05
298.15	1109.847	.05
303.15	1106.332	.05
308.15	1102.804	.05
313.15	1099.255	.05
318.15	1095.692	.05

System: ethylene glycol; phases: Liquid
Fixed: Pressure, kPa = 101.325
Property: Speed of sound, m/s (Liquid); method: Sing-around technique in a fixed-path interferometer
Temperature, K	Speed of sound, m/s	uncertainty
288.15	1677.47	1
293.15	1665.59	1
298.15	1653.9	1
303.15	1642.23	1
308.15	1630.59	1
313.15	1618.9	1
318.15	1607.27	1

System: 1-pentyl-3-methylimidazolium bromide; phases: Liquid
Fixed: Pressure, kPa = 101.325
Property: Mass density, kg/m3 (Liquid); method: Vibrating tube method
Temperature, K	Mass density, kg/m3	uncertainty
288.15	1264.075	.05
293.15	1260.523	.05
298.15	1256.868	.05
303.15	1253.049	.05
308.15	1249.569	.05
313.15	1246.171	.05
318.15	1242.758	.05

System: 1-pentyl-3-methylimidazolium bromide; phases: Liquid
Fixed: Pressure, kPa = 101.325
Property: Speed of sound, m/s (Liquid); method: Sing-around technique in a fixed-path interferometer
Temperature, K	Speed of sound, m/s	uncertainty
288.15	1678.58	1
293.15	1644.15	1
298.15	1617.53	1
303.15	1596.43	1
308.15	1578.92	1
313.15	1563.71	1
318.15	1550.17	1

System: 1-methyl-3-pentyl-imidazolium tetrafluoroborate; phases: Liquid
Fixed: Pressure, kPa = 101.325
Property: Mass density, kg/m3 (Liquid); method: Vibrating tube method
Temperature, K	Mass density, kg/m3	uncertainty
288.15	1183.923	.05
293.15	1180.341	.05
298.15	1176.849	.05
303.15	1173.349	.05
308.15	1169.845	.05
313.15	1166.355	.05
318.15	1162.854	.05

System: 1-methyl-3-pentyl-imidazolium tetrafluoroborate; phases: Liquid
Fixed: Pressure, kPa = 101.325
Property: Speed of sound, m/s (Liquid); method: Sing-around technique in a fixed-path interferometer
Temperature, K	Speed of sound, m/s	uncertainty
288.15	1565.15	1
293.15	1552.52	1
298.15	1540.21	1
303.15	1528.15	1
308.15	1516.28	1
313.15	1504.62	1
318.15	1493.07	1

System: 1-butyl-2,3-dimethylimidazolium tetrafluoroborate; phases: Liquid
Fixed: Pressure, kPa = 101.325
Property: Mass density, kg/m3 (Liquid); method: Vibrating tube method
Temperature, K	Mass density, kg/m3	uncertainty
288.15	1199.902	.05
293.15	1196.716	.05
298.15	1193.338	.05
303.15	1189.921	.05
308.15	1186.516	.05
313.15	1183.167	.05
318.15	1179.544	.05

System: 1-butyl-2,3-dimethylimidazolium tetrafluoroborate; phases: Liquid
Fixed: Pressure, kPa = 101.325
Property: Speed of sound, m/s (Liquid); method: Sing-around technique in a fixed-path interferometer
Temperature, K	Speed of sound, m/s	uncertainty
288.15	1668.64	1
293.15	1654.88	1
298.15	1641.44	1
303.15	1628.74	1
308.15	1616.88	1
313.15	1605.08	1
318.15	1593.87	1

System: ethylene glycol + 1-pentyl-3-methylimidazolium bromide; phases: Liquid
Fixed: Pressure, kPa = 101
Property: Mass density, kg/m3 (Liquid); method: Vibrating tube method
Temperature, K	Mole fraction of 1-pentyl-3-methylimidazolium bromide	Mass density, kg/m3	uncertainty
288.15	.0528	1135.697	.05
288.15	.1031	1149.846	.05
288.15	.2102	1173.934	.05
288.15	.3163	1191.199	.05
288.15	.4186	1204.89	.05
288.15	.512	1215.135	.05
288.15	.6129	1224.184	.05
288.15	.6967	1232.134	.05
288.15	.8031	1241.922	.05
288.15	.9021	1252.457	.05
293.15	.0528	1132.186	.05
293.15	.1031	1146.32	.05
293.15	.2102	1170.402	.05
293.15	.3163	1187.707	.05
293.15	.4186	1201.442	.05
293.15	.512	1211.735	.05
293.15	.6129	1220.735	.05
293.15	.6967	1228.693	.05
293.15	.8031	1238.525	.05
293.15	.9021	1249.146	.05
298.15	.0528	1128.672	.05
298.15	.1031	1142.794	.05
298.15	.2102	1166.872	.05
298.15	.3163	1184.214	.05
298.15	.4186	1198.004	.05
298.15	.512	1208.332	.05
298.15	.6129	1217.409	.05
298.15	.6967	1225.254	.05
298.15	.8031	1235.126	.05
298.15	.9021	1245.763	.05
303.15	.0528	1125.144	.05
303.15	.1031	1139.261	.05
303.15	.2102	1163.344	.05
303.15	.3163	1180.729	.05
303.15	.4186	1194.565	.05
303.15	.512	1204.937	.05
303.15	.6129	1214.063	.05
303.15	.6967	1221.862	.05
303.15	.8031	1231.727	.05
303.15	.9021	1242.365	.05
308.15	.0528	1121.612	.05
308.15	.1031	1135.723	.05
308.15	.2102	1159.814	.05
308.15	.3163	1177.25	.05
308.15	.4186	1191.129	.05
308.15	.512	1201.54	.05
308.15	.6129	1210.72	.05
308.15	.6967	1218.561	.05
308.15	.8031	1228.31	.05
308.15	.9021	1238.929	.05
313.15	.0528	1118.066	.05
313.15	.1031	1132.182	.05
313.15	.2102	1156.286	.05
313.15	.3163	1173.775	.05
313.15	.4186	1187.704	.05
313.15	.512	1198.15	.05
313.15	.6129	1207.378	.05
313.15	.6967	1215.254	.05
313.15	.8031	1224.999	.05
313.15	.9021	1235.483	.05
318.15	.0528	1114.508	.05
318.15	.1031	1128.623	.05
318.15	.2102	1152.746	.05
318.15	.3163	1170.303	.05
318.15	.4186	1184.273	.05
318.15	.512	1194.759	.05
318.15	.6129	1204.046	.05
318.15	.6967	1211.939	.05
318.15	.8031	1221.735	.05
318.15	.9021	1232.056	.05

System: ethylene glycol + 1-pentyl-3-methylimidazolium bromide; phases: Liquid
Fixed: Pressure, kPa = 101
Property: Speed of sound, m/s (Liquid); method: Sing-around technique in a fixed-path interferometer
Temperature, K	Mole fraction of 1-pentyl-3-methylimidazolium bromide	Speed of sound, m/s	uncertainty
288.15	.0528	1671.72	1
288.15	.1031	1664.37	1
288.15	.2102	1650.58	1
288.15	.3163	1645.35	1
288.15	.4186	1641.43	1
288.15	.512	1637.67	1
288.15	.6129	1636.45	1
288.15	.6967	1638.71	1
288.15	.8031	1645.04	1
288.15	.9021	1657.91	1
293.15	.0528	1659.9	1
293.15	.1031	1653.89	1
293.15	.2102	1641.97	1
293.15	.3163	1634.54	1
293.15	.4186	1628.94	1
293.15	.512	1625.51	1
293.15	.6129	1623.58	1
293.15	.6967	1623.84	1
293.15	.8031	1626.28	1
293.15	.9021	1631.09	1
298.15	.0528	1648.19	1
298.15	.1031	1640.75	1
298.15	.2102	1630.74	1
298.15	.3163	1622.97	1
298.15	.4186	1616.85	1
298.15	.512	1613.76	1
298.15	.6129	1612.38	1
298.15	.6967	1611.93	1
298.15	.8031	1613.18	1
298.15	.9021	1615.99	1
303.15	.0528	1636.44	1
303.15	.1031	1629.77	1
303.15	.2102	1619.09	1
303.15	.3163	1611.63	1
303.15	.4186	1606.18	1
303.15	.512	1602.97	1
303.15	.6129	1601.68	1
303.15	.6967	1600.37	1
303.15	.8031	1600.94	1
303.15	.9021	1602.39	1
308.15	.0528	1624.74	1
308.15	.1031	1618.26	1
308.15	.2102	1607.47	1
308.15	.3163	1600.08	1
308.15	.4186	1594.34	1
308.15	.512	1591.33	1
308.15	.6129	1590.01	1
308.15	.6967	1589.13	1
308.15	.8031	1589.27	1
308.15	.9021	1589.81	1
313.15	.0528	1613.08	1
313.15	.1031	1606.55	1
313.15	.2102	1596.06	1
313.15	.3163	1588.81	1
313.15	.4186	1583.17	1
313.15	.512	1580.28	1
313.15	.6129	1579.09	1
313.15	.6967	1578.15	1
313.15	.8031	1578.05	1
313.15	.9021	1578.03	1
318.15	.0528	1601.44	1
318.15	.1031	1594.97	1
318.15	.2102	1584.45	1
318.15	.3163	1577.47	1
318.15	.4186	1572.24	1
318.15	.512	1569.49	1
318.15	.6129	1568.29	1
318.15	.6967	1567.44	1
318.15	.8031	1567.11	1
318.15	.9021	1566.75	1

System: ethylene glycol + 1-methyl-3-pentyl-imidazolium tetrafluoroborate; phases: Liquid
Fixed: Pressure, kPa = 101
Property: Mass density, kg/m3 (Liquid); method: Vibrating tube method
Temperature, K	Mole fraction of 1-methyl-3-pentyl-imidazolium tetrafluoroborate	Mass density, kg/m3	uncertainty
288.15	.0549	1127.514	.05
288.15	.1148	1135.947	.05
288.15	.2053	1145.612	.05
288.15	.3086	1153.94	.05
288.15	.4154	1160.639	.05
288.15	.5063	1165.134	.05
288.15	.6273	1170.267	.05
288.15	.7138	1173.396	.05
288.15	.7982	1176.333	.05
288.15	.8985	1179.689	.05
293.15	.0549	1123.891	.05
293.15	.1148	1132.232	.05
293.15	.2053	1141.805	.05
293.15	.3086	1150.115	.05
293.15	.4154	1156.839	.05
293.15	.5063	1161.541	.05
293.15	.6273	1166.542	.05
293.15	.7138	1169.748	.05
293.15	.7982	1172.709	.05
293.15	.8985	1176.114	.05
298.15	.0549	1120.268	.05
298.15	.1148	1128.524	.05
298.15	.2053	1138.012	.05
298.15	.3086	1146.306	.05
298.15	.4154	1153.05	.05
298.15	.5063	1157.876	.05
298.15	.6273	1162.855	.05
298.15	.7138	1166.104	.05
298.15	.7982	1169.095	.05
298.15	.8985	1172.645	.05
303.15	.0549	1116.635	.05
303.15	.1148	1124.806	.05
303.15	.2053	1134.224	.05
303.15	.3086	1142.503	.05
303.15	.4154	1149.272	.05
303.15	.5063	1154.206	.05
303.15	.6273	1159.186	.05
303.15	.7138	1162.476	.05
303.15	.7982	1165.497	.05
303.15	.8985	1169.125	.05
308.15	.0549	1112.996	.05
308.15	.1148	1121.086	.05
308.15	.2053	1130.441	.05
308.15	.3086	1138.709	.05
308.15	.4154	1145.51	.05
308.15	.5063	1150.465	.05
308.15	.6273	1155.523	.05
308.15	.7138	1158.865	.05
308.15	.7982	1161.915	.05
308.15	.8985	1165.591	.05
313.15	.0549	1109.345	.05
313.15	.1148	1117.365	.05
313.15	.2053	1126.663	.05
313.15	.3086	1134.929	.05
313.15	.4154	1141.761	.05
313.15	.5063	1146.711	.05
313.15	.6273	1151.877	.05
313.15	.7138	1155.259	.05
313.15	.7982	1158.347	.05
313.15	.8985	1162.042	.05
318.15	.0549	1105.674	.05
318.15	.1148	1113.628	.05
318.15	.2053	1122.883	.05
318.15	.3086	1131.148	.05
318.15	.4154	1138.02	.05
318.15	.5063	1142.795	.05
318.15	.6273	1148.221	.05
318.15	.7138	1151.654	.05
318.15	.7982	1154.776	.05
318.15	.8985	1158.385	.05

System: ethylene glycol + 1-methyl-3-pentyl-imidazolium tetrafluoroborate; phases: Liquid
Fixed: Pressure, kPa = 101
Property: Speed of sound, m/s (Liquid); method: Sing-around technique in a fixed-path interferometer
Temperature, K	Mole fraction of 1-methyl-3-pentyl-imidazolium tetrafluoroborate	Speed of sound, m/s	uncertainty
288.15	.0549	1658.99	1
288.15	.1148	1639.34	1
288.15	.2053	1617.06	1
288.15	.3086	1599.31	1
288.15	.4154	1587.28	1
288.15	.5063	1580.27	1
288.15	.6273	1573.12	1
288.15	.7138	1569.84	1
288.15	.7982	1567.94	1
288.15	.8985	1565.94	1
293.15	.0549	1646.88	1
293.15	.1148	1627.15	1
293.15	.2053	1604.6	1
293.15	.3086	1586.93	1
293.15	.4154	1574.95	1
293.15	.5063	1567.65	1
293.15	.6273	1560.85	1
293.15	.7138	1558.07	1
293.15	.7982	1556.78	1
293.15	.8985	1555.35	1
298.15	.0549	1634.82	1
298.15	.1148	1615.07	1
298.15	.2053	1592.36	1
298.15	.3086	1574.67	1
298.15	.4154	1562.71	1
298.15	.5063	1555.46	1
298.15	.6273	1548.31	1
298.15	.7138	1544.75	1
298.15	.7982	1542.26	1
298.15	.8985	1540.26	1
303.15	.0549	1622.83	1
303.15	.1148	1602.93	1
303.15	.2053	1580.22	1
303.15	.3086	1562.49	1
303.15	.4154	1550.56	1
303.15	.5063	1543.25	1
303.15	.6273	1536.54	1
303.15	.7138	1532.77	1
303.15	.7982	1530.32	1
303.15	.8985	1528.54	1
308.15	.0549	1609.94	1
308.15	.1148	1590.89	1
308.15	.2053	1568.13	1
308.15	.3086	1550.41	1
308.15	.4154	1538.5	1
308.15	.5063	1531.22	1
308.15	.6273	1524.55	1
308.15	.7138	1520.96	1
308.15	.7982	1518.55	1
308.15	.8985	1516.88	1
313.15	.0549	1598.22	1
313.15	.1148	1578.9	1
313.15	.2053	1556.12	1
313.15	.3086	1538.44	1
313.15	.4154	1526.52	1
313.15	.5063	1519.46	1
313.15	.6273	1512.76	1
313.15	.7138	1509.22	1
313.15	.7982	1506.42	1
313.15	.8985	1505.33	1
318.15	.0549	1586.67	1
318.15	.1148	1566.94	1
318.15	.2053	1544.18	1
318.15	.3086	1526.58	1
318.15	.4154	1514.6	1
318.15	.5063	1507.73	1
318.15	.6273	1501.48	1
318.15	.7138	1497.67	1
318.15	.7982	1495.49	1
318.15	.8985	1493.99	1

System: ethylene glycol + 1-butyl-2,3-dimethylimidazolium tetrafluoroborate; phases: Liquid
Fixed: Pressure, kPa = 101
Property: Mass density, kg/m3 (Liquid); method: Vibrating tube method
Temperature, K	Mole fraction of 1-butyl-2,3-dimethylimidazolium tetrafluoroborate	Mass density, kg/m3	uncertainty
288.15	.0698	1138.165	.05
288.15	.1114	1148.035	.05
288.15	.219	1163.088	.05
288.15	.3157	1172.236	.05
288.15	.4167	1177.802	.05
288.15	.5153	1181.993	.05
288.15	.6157	1185.958	.05
288.15	.7042	1189.362	.05
288.15	.8028	1192.875	.05
288.15	.9065	1196.578	.05
293.15	.0698	1134.554	.05
293.15	.1114	1144.093	.05
293.15	.219	1159.149	.05
293.15	.3157	1167.38	.05
293.15	.4167	1172.088	.05
293.15	.5153	1176.318	.05
293.15	.6157	1180.662	.05
293.15	.7042	1184.472	.05
293.15	.8028	1188.272	.05
293.15	.9065	1192.085	.05
298.15	.0698	1130.931	.05
298.15	.1114	1140.427	.05
298.15	.219	1155.297	.05
298.15	.3157	1162.947	.05
298.15	.4167	1167.847	.05
298.15	.5153	1171.801	.05
298.15	.6157	1176.731	.05
298.15	.7042	1180.556	.05
298.15	.8028	1184.585	.05
298.15	.9065	1188.594	.05
303.15	.0698	1127.295	.05
303.15	.1114	1136.792	.05
303.15	.219	1151.474	.05
303.15	.3157	1158.292	.05
303.15	.4167	1162.575	.05
303.15	.5153	1166.356	.05
303.15	.6157	1171.533	.05
303.15	.7042	1176.145	.05
303.15	.8028	1180.735	.05
303.15	.9065	1185.156	.05
308.15	.0698	1123.654	.05
308.15	.1114	1133.188	.05
308.15	.219	1147.66	.05
308.15	.3157	1154.93	.05
308.15	.4167	1158.22	.05
308.15	.5153	1161.455	.05
308.15	.6157	1167.01	.05
308.15	.7042	1172.28	.05
308.15	.8028	1177.55	.05
308.15	.9065	1182.72	.05
313.15	.0698	1120.001	.05
313.15	.1114	1129.526	.05
313.15	.219	1143.866	.05
313.15	.3157	1150.95	.05
313.15	.4167	1154.7	.05
313.15	.5153	1158.26	.05
313.15	.6157	1163.8	.05
313.15	.7042	1169.14	.05
313.15	.8028	1174.463	.05
313.15	.9065	1179.21	.05
318.15	.0698	1116.332	.05
318.15	.1114	1125.839	.05
318.15	.219	1140.066	.05
318.15	.3157	1147.061	.05
318.15	.4167	1150.905	.05
318.15	.5153	1154.902	.05
318.15	.6157	1160.61	.05
318.15	.7042	1165.8	.05
318.15	.8028	1171.108	.05
318.15	.9065	1175.647	.05

System: ethylene glycol + 1-butyl-2,3-dimethylimidazolium tetrafluoroborate; phases: Liquid
Fixed: Pressure, kPa = 101
Property: Speed of sound, m/s (Liquid); method: Sing-around technique in a fixed-path interferometer
Temperature, K	Mole fraction of 1-butyl-2,3-dimethylimidazolium tetrafluoroborate	Speed of sound, m/s	uncertainty
288.15	.0698	1674.03	1
288.15	.1114	1668.1	1
288.15	.219	1661.87	1
288.15	.3157	1656.96	1
288.15	.4167	1653.66	1
288.15	.5153	1652.52	1
288.15	.6157	1653.1	1
288.15	.7042	1654.86	1
288.15	.8028	1658.03	1
288.15	.9065	1662.08	1
293.15	.0698	1661.03	1
293.15	.1114	1655.59	1
293.15	.219	1649.53	1
293.15	.3157	1643.81	1
293.15	.4167	1639.38	1
293.15	.5153	1638.02	1
293.15	.6157	1638.74	1
293.15	.7042	1641.51	1
293.15	.8028	1645.21	1
293.15	.9065	1649.93	1
298.15	.0698	1648.75	1
298.15	.1114	1643.32	1
298.15	.219	1636.84	1
298.15	.3157	1631.4	1
298.15	.4167	1628.19	1
298.15	.5153	1627.07	1
298.15	.6157	1627.45	1
298.15	.7042	1630.28	1
298.15	.8028	1633.47	1
298.15	.9065	1637.66	1
303.15	.0698	1637	1
303.15	.1114	1631.55	1
303.15	.219	1624.44	1
303.15	.3157	1619.7	1
303.15	.4167	1616.56	1
303.15	.5153	1615.52	1
303.15	.6157	1616.54	1
303.15	.7042	1618.82	1
303.15	.8028	1621.67	1
303.15	.9065	1625.66	1
308.15	.0698	1625.35	1
308.15	.1114	1619.37	1
308.15	.219	1612.15	1
308.15	.3157	1607.72	1
308.15	.4167	1604.74	1
308.15	.5153	1604.2	1
308.15	.6157	1604.95	1
308.15	.7042	1607.41	1
308.15	.8028	1610.47	1
308.15	.9065	1613.7	1
313.15	.0698	1613.81	1
313.15	.1114	1607.86	1
313.15	.219	1599.96	1
313.15	.3157	1595.66	1
313.15	.4167	1592.93	1
313.15	.5153	1592.85	1
313.15	.6157	1593.95	1
313.15	.7042	1596.36	1
313.15	.8028	1598.88	1
313.15	.9065	1602.05	1
318.15	.0698	1602.53	1
318.15	.1114	1596.23	1
318.15	.219	1587.9	1
318.15	.3157	1584	1
318.15	.4167	1581.21	1
318.15	.5153	1581.57	1
318.15	.6157	1582.79	1
318.15	.7042	1585.06	1
318.15	.8028	1587.74	1
318.15	.9065	1590.8	1
