Measured thermophysical data. Vapor liquid equilibrium measurements for difluoromethane (R32) + 2,3,3,3-tetrafluoroprop-1-ene (R1234yf) and fluoroethane (R161) + 2,3,3,3-tetrafluoroprop-1-ene (R1234yf)
Source: Fluid Phase Equilib., 2017, 10.1016/j.fluid.2017.01.024
Compound 1: R-32, CH2F2, purity 99.8%
Compound 2: fluoroethane, C2H5F, purity 99.7%
Compound 3: R-1234ze(E), C3H2F4, purity 99.5%
Compound 4: R-1234yf, C3H2F4, purity 99.5%

System: R-32; phases: Liquid, Gas
Property: Vapor or sublimation pressure, kPa (Liquid); method: Closed cell (Static) method
Temperature, K	Vapor or sublimation pressure, kPa	uncertainty
283.15	1107.3	
293.15	1474	
303.15	1925.8	
313.15	2476.2	
323.15	3138	

System: fluoroethane; phases: Liquid, Gas
Property: Vapor or sublimation pressure, kPa (Liquid); method: Closed cell (Static) method
Temperature, K	Vapor or sublimation pressure, kPa	uncertainty
283.148	601.4	
288.157	698.2	
293.147	805.6	
298.14	924.8	
303.152	1057.4	
308.155	1203.4	
313.158	1363.6	
318.152	1539	
323.147	1730.6	
283.15	601.4	
293.15	805.6	
303.15	1057.4	
313.15	1363.6	
323.15	1730.6	

System: R-1234yf; phases: Liquid, Gas
Property: Vapor or sublimation pressure, kPa (Liquid); method: Closed cell (Static) method
Temperature, K	Vapor or sublimation pressure, kPa	uncertainty
283.153	437.4	
288.147	509.9	
293.157	591.7	
298.151	681.9	
303.153	782.5	
308.157	893.6	
313.157	1017.8	
318.158	1153.2	
323.152	1301.4	
283.15	437.4	
293.15	591.7	
303.15	782.5	
313.15	1017.8	
323.15	1301.4	

System: R-32 + R-1234ze(E); phases: Liquid, Gas
Property: Vapor or sublimation pressure, kPa (Liquid); method: Closed cell (Static) method
Mole fraction of R-32	Temperature, K	Vapor or sublimation pressure, kPa	uncertainty
.1562	283.15	450.9	
.4323	283.15	680.3	
.7324	283.15	906.2	
.1532	293.15	607.2	
.4273	293.15	902.3	
.7302	293.15	1203.9	
.1517	303.15	800.7	
.4236	303.15	1173.3	
.7286	303.15	1568.3	
.1549	313.15	1045.4	
.4187	313.15	1498.1	
.7261	313.15	2006.8	
.1525	323.15	1329.8	
.4097	323.15	1874.7	
.7242	323.15	2529.5	

System: R-32 + R-1234ze(E); phases: Gas, Liquid
Property: Mole fraction of R-32 (Gas); method: Chromatography
Mole fraction of R-32	Temperature, K	Mole fraction of R-32	uncertainty
.1562	283.15	.3952	
.4323	283.15	.7036	
.7324	283.15	.8798	
.1532	293.15	.3714	
.4273	293.15	.6851	
.7302	293.15	.8708	
.1517	303.15	.3502	
.4236	303.15	.6644	
.7286	303.15	.8612	
.1549	313.15	.3373	
.4187	313.15	.6424	
.7261	313.15	.8513	
.1525	323.15	.315	
.4097	323.15	.6168	
.7242	323.15	.8402	

System: R-32 + R-1234yf; phases: Liquid, Gas
Property: Vapor or sublimation pressure, kPa (Liquid); method: Closed cell (Static) method
Mole fraction of R-32	Temperature, K	Vapor or sublimation pressure, kPa	uncertainty
0	283.15	437.4	
.0855	283.15	528.7	
.1767	283.15	616.6	
.2703	283.15	698.8	
.3272	283.15	745.2	
.4366	283.15	824.6	
.5105	283.15	873.3	
.6082	283.15	931	
.7056	283.15	983.2	
.8088	283.15	1032.5	
1	283.15	1107.3	
0	293.15	591.7	
.0842	293.15	704.7	
.1741	293.15	815.6	
.2675	293.15	921	
.3187	293.15	975.7	
.4338	293.15	1087	
.5071	293.15	1151.6	
.6046	293.15	1230.1	
.703	293.15	1302	
.8071	293.15	1370.5	
1	293.15	1474	
0	303.15	782.5	
.0833	303.15	921.2	
.1723	303.15	1058.2	
.2652	303.15	1191.9	
.314	303.15	1257.9	
.432	303.15	1406.6	
.5044	303.15	1490.2	
.6025	303.15	1595.5	
.7016	303.15	1691.7	
.8061	303.15	1784.4	
1	303.15	1925.8	
0	313.15	1017.8	
.082	313.15	1182.6	
.1699	313.15	1349.4	
.2629	313.15	1515.4	
.3095	313.15	1595.4	
.4297	313.15	1788.2	
.5007	313.15	1894.5	
.5995	313.15	2032.8	
.6993	313.15	2160.1	
.8045	313.15	2284.8	
1	313.15	2476.2	
0	323.15	1301.4	
.0813	323.15	1496.1	
.1681	323.15	1695.6	
.2608	323.15	1898.6	
.3041	323.15	1990.1	
.4275	323.15	2239.8	
.4974	323.15	2371.8	
.5972	323.15	2552	
.6974	323.15	2718.5	
.8034	323.15	2882.7	
1	323.15	3138	

System: R-32 + R-1234yf; phases: Gas, Liquid
Property: Mole fraction of R-32 (Gas); method: Chromatography
Mole fraction of R-32	Temperature, K	Mole fraction of R-32	uncertainty
0	283.15	0	
.0855	283.15	.222	
.1767	283.15	.38	
.2703	283.15	.4985	
.3272	283.15	.556	
.4366	283.15	.6472	
.5105	283.15	.7	
.6082	283.15	.7606	
.7056	283.15	.817	
.8088	283.15	.8753	
1	283.15	1	
0	293.15	0	
.0842	293.15	.2067	
.1741	293.15	.3602	
.2675	293.15	.4785	
.3187	293.15	.5308	
.4338	293.15	.6327	
.5071	293.15	.6866	
.6046	293.15	.7509	
.703	293.15	.8108	
.8071	293.15	.8725	
1	293.15	1	
0	303.15	0	
.0833	303.15	.1922	
.1723	303.15	.3409	
.2652	303.15	.4592	
.314	303.15	.5094	
.432	303.15	.6176	
.5044	303.15	.6726	
.6025	303.15	.741	
.7016	303.15	.8039	
.8061	303.15	.8688	
1	303.15	1	
0	313.15	0	
.082	313.15	.178	
.1699	313.15	.3204	
.2629	313.15	.438	
.3095	313.15	.4873	
.4297	313.15	.5995	
.5007	313.15	.6576	
.5995	313.15	.7289	
.6993	313.15	.7955	
.8045	313.15	.8641	
1	313.15	1	
0	323.15	0	
.0813	323.15	.1646	
.1681	323.15	.3004	
.2608	323.15	.4173	
.3041	323.15	.4608	
.4275	323.15	.5799	
.4974	323.15	.6408	
.5972	323.15	.7156	
.6974	323.15	.7861	
.8034	323.15	.8588	
1	323.15	1	

System: fluoroethane + R-1234yf; phases: Liquid, Gas
Property: Vapor or sublimation pressure, kPa (Liquid); method: Closed cell (Static) method
Mole fraction of fluoroethane	Temperature, K	Vapor or sublimation pressure, kPa	uncertainty
0	283.15	437.4	
.1128	283.15	459.8	
.2294	283.15	481.3	
.3555	283.15	504.5	
.4483	283.15	521	
.5279	283.15	535.1	
.6583	283.15	556.2	
.748	283.15	569.4	
.8548	283.15	584.7	
.9124	283.15	591.3	
1	283.15	601.4	
0	293.15	591.7	
.1119	293.15	620.7	
.2287	293.15	649.3	
.3554	293.15	679.4	
.4464	293.15	700.6	
.5271	293.15	719	
.6571	293.15	746.7	
.7472	293.15	763.8	
.8545	293.15	783.8	
.9122	293.15	792.4	
1	293.15	805.6	
0	303.15	782.5	
.1116	303.15	820	
.2283	303.15	856.7	
.355	303.15	895.7	
.446	303.15	923	
.5265	303.15	946.6	
.6569	303.15	982	
.7469	303.15	1004.2	
.8542	303.15	1029.5	
.912	303.15	1040.6	
1	303.15	1057.4	
0	313.15	1017.8	
.1111	313.15	1063.8	
.2268	313.15	1110.6	
.3533	313.15	1159.7	
.445	313.15	1194	
.5255	313.15	1223.6	
.656	313.15	1268.3	
.7462	313.15	1296.5	
.8539	313.15	1328.4	
.9119	313.15	1342.6	
1	313.15	1363.6	
0	323.15	1301.4	
.1102	323.15	1358.8	
.2269	323.15	1416.7	
.3539	323.15	1477.6	
.444	323.15	1519.9	
.5253	323.15	1557.1	
.6558	323.15	1612.9	
.7456	323.15	1647.9	
.8534	323.15	1687.5	
.9117	323.15	1705.1	
1	323.15	1730.6	

System: fluoroethane + R-1234yf; phases: Gas, Liquid
Property: Mole fraction of fluoroethane (Gas); method: Chromatography
Mole fraction of fluoroethane	Temperature, K	Mole fraction of fluoroethane	uncertainty
0	283.15	0	
.1128	283.15	.15	
.2294	283.15	.2891	
.3555	283.15	.4249	
.4483	283.15	.5217	
.5279	283.15	.5925	
.6583	283.15	.7161	
.748	283.15	.7908	
.8548	283.15	.8796	
.9124	283.15	.9268	
1	283.15	1	
0	293.15	0	
.1119	293.15	.1462	
.2287	293.15	.2856	
.3554	293.15	.4212	
.4464	293.15	.5153	
.5271	293.15	.5891	
.6571	293.15	.7104	
.7472	293.15	.7874	
.8545	293.15	.877	
.9122	293.15	.9252	
1	293.15	1	
0	303.15	0	
.1116	303.15	.1432	
.2283	303.15	.2791	
.355	303.15	.4145	
.446	303.15	.5091	
.5265	303.15	.5845	
.6569	303.15	.7054	
.7469	303.15	.7838	
.8542	303.15	.875	
.912	303.15	.924	
1	303.15	1	
0	313.15	0	
.1111	313.15	.139	
.2268	313.15	.2745	
.3533	313.15	.4087	
.445	313.15	.5025	
.5255	313.15	.5798	
.656	313.15	.7007	
.7462	313.15	.7805	
.8539	313.15	.8732	
.9119	313.15	.9228	
1	313.15	1	
0	323.15	0	
.1102	323.15	.1359	
.2269	323.15	.2692	
.3539	323.15	.4033	
.444	323.15	.4957	
.5253	323.15	.5734	
.6558	323.15	.6959	
.7456	323.15	.7762	
.8534	323.15	.8708	
.9117	323.15	.9217	
1	323.15	1	
