Measured thermophysical data. Phase behavior measurement for the binary mixture of CO2 + neopentyl glycol diacrylate and CO2 + neopentyl glycol dimethacrylate systems at high pressure
Source: Fluid Phase Equilib., 2011, 10.1016/j.fluid.2010.09.003
Compound 1: carbon dioxide, CO2, purity 99.8%
Compound 2: neopentyl glycol diacrylate, C11H16O4, purity 85%
Compound 3: neopentyl glycol dimethacrylate, C13H20O4, purity 85%

System: carbon dioxide + neopentyl glycol diacrylate; phases: Liquid, Gas
Property: Vapor or sublimation pressure, kPa (Liquid); method: Closed cell (Static) method
Temperature, K	Mole fraction of neopentyl glycol diacrylate	Vapor or sublimation pressure, kPa	uncertainty
313.2	.048	9520	20
313.2	.075	8830	20
313.2	.101	8310	20
313.2	.15	8210	20
313.2	.191	7410	20
313.2	.272	6240	20
313.2	.327	6000	20
313.2	.407	5000	20
313.2	.483	3760	20
313.2	.586	2970	20
313.2	.655	2550	20
333.2	.048	14030	20
333.2	.075	13450	20
333.2	.101	12720	20
333.2	.15	11410	20
333.2	.191	10860	20
333.2	.272	8520	20
333.2	.327	7970	20
333.2	.407	6450	20
333.2	.483	5550	20
333.2	.586	3930	20
333.2	.655	3310	20
353.2	.048	18660	20
353.2	.075	17590	20
353.2	.101	17240	20
353.2	.15	15550	20
353.2	.191	13590	20
353.2	.272	11450	20
353.2	.327	10100	20
353.2	.407	8070	20
353.2	.483	6480	20
353.2	.586	4720	20
353.2	.655	4000	20
373.2	.048	22210	20
373.2	.075	21350	20
373.2	.101	21100	20
373.2	.15	19450	20
373.2	.191	17590	20
373.2	.272	13660	20
373.2	.327	12210	20
373.2	.407	9790	20
373.2	.483	7690	20
373.2	.586	5690	20
373.2	.655	4720	20
393.2	.075	24070	20
393.2	.101	23480	20
393.2	.15	22450	20
393.2	.191	20410	20
393.2	.272	16070	20
393.2	.327	14310	20
393.2	.407	11210	20
393.2	.483	8970	20
393.2	.586	6520	20
393.2	.655	5410	20

System: carbon dioxide + neopentyl glycol diacrylate; phases: Liquid, Gas
Property: Critical temperature, K (Liquid); method: Static Cell
Mole fraction of neopentyl glycol diacrylate	Critical temperature, K	uncertainty
.048	393.2	.4

System: carbon dioxide + neopentyl glycol diacrylate; phases: Liquid, Gas
Property: Critical pressure, kPa (Liquid); method: Static Cell
Mole fraction of neopentyl glycol diacrylate	Critical pressure, kPa	uncertainty
.048	24520	20

System: carbon dioxide + neopentyl glycol dimethacrylate; phases: Liquid, Gas
Property: Vapor or sublimation pressure, kPa (Liquid); method: Closed cell (Static) method
Temperature, K	Mole fraction of neopentyl glycol dimethacrylate	Vapor or sublimation pressure, kPa	uncertainty
313.2	.035	9970	20
313.2	.05	9790	20
313.2	.054	9620	20
313.2	.065	9690	20
313.2	.08	9660	20
313.2	.1	9380	20
313.2	.152	8790	20
313.2	.195	8450	20
313.2	.261	7790	20
313.2	.312	7100	20
313.2	.408	6000	20
313.2	.513	5590	20
313.2	.571	5140	20
313.2	.648	4860	20
333.2	.035	14620	20
333.2	.05	14240	20
333.2	.054	14310	20
333.2	.065	14170	20
333.2	.08	13550	20
333.2	.1	13310	20
333.2	.152	12170	20
333.2	.195	11350	20
333.2	.261	10100	20
333.2	.312	9340	20
333.2	.408	7620	20
333.2	.513	6550	20
333.2	.571	5860	20
333.2	.648	5410	20
353.2	.035	17970	20
353.2	.05	18350	20
353.2	.054	18240	20
353.2	.065	18100	20
353.2	.08	17620	20
353.2	.1	17280	20
353.2	.152	16240	20
353.2	.195	14520	20
353.2	.261	12450	20
353.2	.312	11280	20
353.2	.408	9410	20
353.2	.513	7550	20
353.2	.571	6660	20
353.2	.648	5970	20
373.2	.054	21690	20
373.2	.065	21550	20
373.2	.08	21140	20
373.2	.1	20790	20
373.2	.152	19350	20
373.2	.195	17690	20
373.2	.261	14930	20
373.2	.312	13480	20
373.2	.408	10790	20
373.2	.513	8480	20
373.2	.571	7380	20
373.2	.648	6520	20
393.2	.065	24590	20
393.2	.08	24140	20
393.2	.1	23620	20
393.2	.152	21830	20
393.2	.195	20210	20
393.2	.261	17280	20
393.2	.312	15480	20
393.2	.408	11900	20
393.2	.513	9350	20
393.2	.571	8100	20
393.2	.648	6930	20

System: carbon dioxide + neopentyl glycol dimethacrylate; phases: Gas, Liquid
Property: Vapor or sublimation pressure, kPa (Gas); method: Closed cell (Static) method
Temperature, K	Mole fraction of neopentyl glycol dimethacrylate	Vapor or sublimation pressure, kPa	uncertainty
373.2	.035	21900	20
393.2	.035	24720	20
393.2	.05	25280	20

System: carbon dioxide + neopentyl glycol dimethacrylate; phases: Liquid, Gas
Property: Critical temperature, K (Liquid); method: Static Cell
Mole fraction of neopentyl glycol dimethacrylate	Critical temperature, K	uncertainty
.05	373.2	.4
.054	393.2	.4

System: carbon dioxide + neopentyl glycol dimethacrylate; phases: Liquid, Gas
Property: Critical pressure, kPa (Liquid); method: Static Cell
Mole fraction of neopentyl glycol dimethacrylate	Critical pressure, kPa	uncertainty
.05	22240	20
.054	24590	20
