Measured thermophysical data. Solution thermodynamics of S-ibuprofen n-octyl-d-glucamine salt in ethanol + water cosolvent mixtures
Source: Fluid Phase Equilib., 2014, 10.1016/j.fluid.2014.04.003
Compound 1: S-ibuprofen n-octyl-d-glucamine salt, C27H49NO7
Compound 2: ethanol, C2H6O
Compound 3: water, H2O

System: S-ibuprofen n-octyl-d-glucamine salt; phases: Crystal, Liquid, Air at 1 atmosphere
Property: Molar enthalpy of transition or fusion, kJ/mol (Crystal); method: DSC/DTA
Molar enthalpy of transition or fusion, kJ/mol	uncertainty
67.78056	.6778056

System: S-ibuprofen n-octyl-d-glucamine salt; phases: Crystal, Liquid, Air at 1 atmosphere
Property: Normal melting temperature, K (Crystal); method: DSC/DTA
Normal melting temperature, K	uncertainty
412.41	.05

System: ethanol + water + S-ibuprofen n-octyl-d-glucamine salt; phases: Liquid, Crystal
Fixed: Pressure, kPa = 101
Property: Mole fraction of S-ibuprofen n-octyl-d-glucamine salt (Liquid); method: Phase equilibration
Solvent: Mole fraction of ethanol	Temperature, K	Mole fraction of S-ibuprofen n-octyl-d-glucamine salt	uncertainty
0	293.09	.00005572	.0000011144
0	298.1	.00006249	.0000012498
0	303.17	.00006829	.0000013658
0	308.05	.00007596	.0000015192
0	313.15	.00008424	.0000016848
0	317.97	.00009198	.0000018396
0	323.17	.0001103	.000002206
.098	293.09	.00006764	.0000013528
.098	298.1	.00007753	.0000015506
.098	303.17	.00009214	.0000018428
.098	308.05	.0001074	.000002148
.098	313.15	.0001301	.000002602
.098	317.97	.0001533	.000003066
.098	323.17	.000186	.00000372
.2028	293.09	.00007285	.000001457
.2028	298.1	.00009362	.0000018724
.2028	303.17	.0001413	.000002826
.2028	308.05	.0001909	.000003818
.2028	313.15	.0002627	.000005254
.2028	317.97	.0003568	.000007136
.2028	323.17	.0006724	.000013448
.3056	293.09	.0002106	.000004212
.3056	298.1	.0003049	.000006098
.3056	303.17	.0004332	.000008664
.3056	308.05	.0007108	.000014216
.3056	313.15	.001232	.00002464
.3056	317.97	.004059	.00008118
.3056	323.17	.01975	.000395
.3984	293.09	.000694	.00001388
.3984	298.1	.001036	.00002072
.3984	303.17	.001632	.00003264
.3984	308.05	.002884	.00005768
.3984	313.15	.006455	.0001291
.3984	317.97	.0196	.000392
.3984	323.17	.04118	.0008236
.5022	293.09	.001965	.0000393
.5022	298.1	.002835	.0000567
.5022	303.17	.004574	.00009148
.5022	308.05	.007691	.00015382
.5022	313.15	.01617	.0003234
.5022	317.97	.03088	.0006176
.5022	323.17	.04739	.0009478
.5994	293.09	.003687	.00007374
.5994	298.1	.005307	.00010614
.5994	303.17	.008109	.00016218
.5994	308.05	.0129	.000258
.5994	313.15	.02201	.0004402
.5994	317.97	.034	.00068
.5994	323.17	.04791	.0009582
.7003	293.09	.00463	.0000926
.7003	298.1	.006394	.00012788
.7003	303.17	.009341	.00018682
.7003	308.05	.01371	.0002742
.7003	313.15	.02089	.0004178
.7003	317.97	.03032	.0006064
.7003	323.17	.04381	.0008762
.8029	293.09	.004554	.00009108
.8029	298.1	.005901	.00011802
.8029	303.17	.008341	.00016682
.8029	308.05	.01162	.0002324
.8029	313.15	.01658	.0003316
.8029	317.97	.02317	.0004634
.8029	323.17	.03322	.0006644
.9002	293.09	.002711	.00005422
.9002	298.1	.003571	.00007142
.9002	303.17	.004964	.00009928
.9002	308.05	.006746	.00013492
.9002	313.15	.009341	.00018682
.9002	317.97	.01296	.0002592
.9002	323.17	.01851	.0003702
1	293.09	.0007534	.000015068
1	298.1	.0009666	.000019332
1	303.17	.001349	.00002698
1	308.05	.001852	.00003704
1	313.15	.002529	.00005058
1	317.97	.003473	.00006946
1	323.17	.004861	.00009722
