Measured thermophysical data. Stable phase equilibria in the ternary system (Na2SO4 + Li2SO4 + H2O) at 308.15 K and 313.15 K
Source: Fluid Phase Equilib., 2015, 10.1016/j.fluid.2015.03.052
Compound 1: sodium sulfate, Na2O4S, purity 99%
Compound 2: lithium sulfate monohydrate, H2Li2O5S, purity 99%
Compound 3: water, H2O

System: water + sodium sulfate + lithium sulfate monohydrate; phases: Liquid, Crystal of intercomponent compound 1
Fixed: Pressure, kPa = 101
Property: Mass fraction of lithium sulfate monohydrate (Liquid); method: isothermal dissolution
Temperature, K	Mass fraction of sodium sulfate	Mass fraction of lithium sulfate monohydrate	uncertainty
308.15	.2509	0	.005
308.15	.2147	.0404	.005
308.15	.2066	.0528	.005
308.15	.1967	.0968	.005
313.15	.2497	0	.005
313.15	.2187	.0612	.005
313.15	.21	.1029	.005

System: water + sodium sulfate + lithium sulfate monohydrate; phases: Liquid, Crystal of intercomponent compound 1
Fixed: Pressure, kPa = 101
Property: Mass fraction of lithium sulfate monohydrate (Liquid); method: isothermal dissolution
Temperature, K	Mass fraction of sodium sulfate	Mass fraction of lithium sulfate monohydrate	uncertainty
308.15	.1967	.0968	.005
308.15	.1859	.1249	.005
308.15	.1727	.1509	.005
308.15	.17	.1788	.005
313.15	.21	.1029	.005
313.15	.2093	.1217	.005
313.15	.1952	.144	.005
313.15	.1704	.1668	.005
313.15	.1671	.1777	.005
313.15	.1507	.2005	.005
313.15	.1459	.1858	.005
313.15	.1442	.1963	.005
313.15	.1474	.2017	.005

System: water + sodium sulfate + lithium sulfate monohydrate; phases: Liquid, Crystal of intercomponent compound 1
Fixed: Pressure, kPa = 101
Property: Mass fraction of lithium sulfate monohydrate (Liquid); method: isothermal dissolution
Temperature, K	Mass fraction of sodium sulfate	Mass fraction of lithium sulfate monohydrate	uncertainty
308.15	.17	.1788	.005
308.15	.1546	.1819	.005
308.15	.1454	.1938	.005
308.15	.1334	.2012	.005
308.15	.0815	.2436	.005
308.15	.0569	.2766	.005
313.15	.1474	.2017	.005
313.15	.1356	.2038	.005
313.15	.1297	.213	.005
313.15	.0819	.2548	.005

System: water + sodium sulfate + lithium sulfate monohydrate; phases: Liquid, Crystal
Fixed: Pressure, kPa = 101
Property: Mass fraction of lithium sulfate monohydrate (Liquid); method: isothermal dissolution
Temperature, K	Mass fraction of sodium sulfate	Mass fraction of lithium sulfate monohydrate	uncertainty
308.15	.0569	.2766	.005
308.15	.0315	.288	.005
308.15	0	.3114	.005
313.15	.0819	.2548	.005
313.15	.043	.2877	.005
313.15	0	.3373	.005

System: water + sodium sulfate + lithium sulfate monohydrate; phases: Liquid, Crystal of intercomponent compound 2, Crystal of intercomponent compound 1
Fixed: Pressure, kPa = 101
Property: Mass fraction of lithium sulfate monohydrate (Liquid); method: isothermal dissolution
Temperature, K	Mass fraction of lithium sulfate monohydrate	uncertainty
308.15	.1967	.005
313.15	.21	.005

System: water + sodium sulfate + lithium sulfate monohydrate; phases: Liquid, Crystal of intercomponent compound 2, Crystal of intercomponent compound 1
Fixed: Pressure, kPa = 101
Property: Mass fraction of sodium sulfate (Liquid); method: isothermal dissolution
Temperature, K	Mass fraction of sodium sulfate	uncertainty
308.15	.0968	.003
313.15	.1029	.003

System: water + sodium sulfate + lithium sulfate monohydrate; phases: Liquid, Crystal of intercomponent compound 2, Crystal of intercomponent compound 1
Fixed: Pressure, kPa = 101
Property: Mass fraction of sodium sulfate (Liquid); method: isothermal dissolution
Temperature, K	Mass fraction of sodium sulfate	uncertainty
308.15	.1788	.003
313.15	.2017	.003

System: water + sodium sulfate + lithium sulfate monohydrate; phases: Liquid, Crystal of intercomponent compound 2, Crystal of intercomponent compound 1
Fixed: Pressure, kPa = 101
Property: Mass fraction of lithium sulfate monohydrate (Liquid); method: isothermal dissolution
Temperature, K	Mass fraction of lithium sulfate monohydrate	uncertainty
308.15	.17	.005
313.15	.1474	.005

System: water + sodium sulfate + lithium sulfate monohydrate; phases: Liquid, Crystal, Crystal of intercomponent compound 1
Fixed: Pressure, kPa = 101
Property: Mass fraction of lithium sulfate monohydrate (Liquid); method: isothermal dissolution
Temperature, K	Mass fraction of lithium sulfate monohydrate	uncertainty
308.15	.0569	.005
313.15	.0819	.005

System: water + sodium sulfate + lithium sulfate monohydrate; phases: Liquid, Crystal, Crystal of intercomponent compound 1
Fixed: Pressure, kPa = 101
Property: Mass fraction of sodium sulfate (Liquid); method: isothermal dissolution
Temperature, K	Mass fraction of sodium sulfate	uncertainty
308.15	.2766	.003
313.15	.2548	.003
