Measured thermophysical data. Study of critical and maximum temperatures of coexistence of liquid and gas phase in hydrocarbons binary mixtures of aromatic hydrocarbons with alkanes and cycloalkanes
Source: Fluid Phase Equilib., 2014, 10.1016/j.fluid.2014.06.020
Compound 1: benzene, C6H6, purity 99.9%
Compound 2: toluene, C7H8, purity 99.9%
Compound 3: n-pentane, C5H12, purity 99.9%
Compound 4: n-hexane, C6H14, purity 99.9%
Compound 5: isopropylbenzene, C9H12, purity 99.5%
Compound 6: 2-methylbiphenyl, C13H12, purity 99.5%
Compound 7: n-undecane, C11H24, purity 99.3%
Compound 8: n-octane, C8H18, purity 98%

System: benzene + n-pentane; phases: Gas, Liquid
Property: Boiling temperature at pressure P, K (Gas); method: Visual Observation
Mass density, kg/m3	Mole fraction of n-pentane	Boiling temperature at pressure P, K	uncertainty
.0001335	.2567	525.6	.5
.000202	.2567	540.5	.5
.0002324	.2567	541.4	.5
.0002698	.2567	536.4	.5
.0001255	.4207	527.5	.5
.0002016	.4207	520.2	.5
.0002572	.4207	518.3	.5
.0001508	.5418	519.9	.5
.0002057	.5418	513.7	.5
.0002398	.5418	510.2	.5
.0001141	.7193	486.1	.5
.0001373	.7193	499.1	.5
.0001747	.7193	496.1	.5
.0002216	.7193	491.8	.5
.0002462	.7193	492.6	.5

System: benzene + n-pentane; phases: Liquid, Gas
Property: Boiling temperature at pressure P, K (Liquid); method: Visual Observation
Mass density, kg/m3	Mole fraction of n-pentane	Boiling temperature at pressure P, K	uncertainty
.0003041	.2567	536	.5
.0003386	.2567	533.6	.5
.0004016	.2567	531.6	.5
.000439	.2567	526.7	.5
.0002935	.4207	518.3	.5
.0003321	.4207	515.5	.5
.0003811	.4207	513.6	.5
.0002598	.5418	510.2	.5
.0002792	.5418	509.9	.5
.0002883	.5418	509.7	.5
.0003079	.5418	508.7	.5
.0003531	.5418	507.3	.5
.0002821	.7193	491.3	.5
.0002987	.7193	488.7	.5
.0003399	.7193	487.6	.5
.0004144	.7193	475	.5

System: benzene + n-pentane; phases: Liquid, Gas
Property: Critical temperature, K (Liquid); method: Visual observation in an unstirred cell
Mole fraction of n-pentane	Critical temperature, K	uncertainty
.2567	536.2	.5
.4207	518.2	.5
.5418	510	.5
.7193	491.5	.5

System: benzene + n-pentane; phases: Liquid, Gas
Property: Critical density, kg/m3 (Liquid); method: Derived from PVT data
Mole fraction of n-pentane	Critical density, kg/m3	uncertainty
.2567	287	5.74
.4207	275.4	5.508
.5418	259.5	5.19
.7193	251.9	5.038

System: benzene + n-hexane; phases: Gas, Liquid
Property: Boiling temperature at pressure P, K (Gas); method: Visual Observation
Mass density, kg/m3	Mole fraction of n-hexane	Boiling temperature at pressure P, K	uncertainty
.0001534	.1804	537.3	.5
.0002142	.1804	546.4	.5
.0002428	.1804	547.1	.5
.0001458	.4048	525.2	.5
.0001919	.4048	532.3	.5
.0002066	.4048	533.2	.5
.0002312	.4048	532.7	.5
.0002708	.4048	532.1	.5
.000306	.4048	532	.5
.0001307	.7614	509.5	.5
.0001561	.7614	513.6	.5
.0001855	.7614	516.4	.5
.0001876	.7614	518	.5
.0002196	.7614	517.1	.5

System: benzene + n-hexane; phases: Liquid, Gas
Property: Boiling temperature at pressure P, K (Liquid); method: Visual Observation
Mass density, kg/m3	Mole fraction of n-hexane	Boiling temperature at pressure P, K	uncertainty
.0003328	.1804	546.5	.5
.0003776	.4048	531.1	.5
.000479	.4048	509.5	.5
.0003132	.7614	516.4	.5

System: benzene + n-hexane; phases: Liquid, Gas
Property: Critical temperature, K (Liquid); method: Visual observation in an unstirred cell
Mole fraction of n-hexane	Critical temperature, K	uncertainty
.1804	546.5	.5
.4048	531.6	.5
.7614	516.7	.5

System: benzene + n-hexane; phases: Liquid, Gas
Property: Critical density, kg/m3 (Liquid); method: Derived from PVT data
Mole fraction of n-hexane	Critical density, kg/m3	uncertainty
.1804	311.7	6.234
.4048	324.2	6.484
.7614	266.4	5.328

System: benzene + n-octane; phases: Gas, Liquid
Property: Boiling temperature at pressure P, K (Gas); method: Visual Observation
Mass density, kg/m3	Mole fraction of n-octane	Boiling temperature at pressure P, K	uncertainty
.0000934	.4356	541.1	.5
.0001668	.4356	559.6	.5
.0002427	.4356	561.3	.5
.0002727	.4356	561.4	.5
.0002926	.4356	561.2	.5
.0001545	.685	559.7	.5
.0002238	.685	564.7	.5
.0002559	.685	564.7	.5

System: benzene + n-octane; phases: Liquid, Gas
Property: Boiling temperature at pressure P, K (Liquid); method: Visual Observation
Mass density, kg/m3	Mole fraction of n-octane	Boiling temperature at pressure P, K	uncertainty
.0003218	.4356	561	.5
.0003469	.4356	560.9	.5
.0004342	.4356	553.9	.5
.0002743	.685	564.8	.5
.0003179	.685	564.5	.5
.0003815	.685	551.6	.5

System: benzene + n-octane; phases: Liquid, Gas
Property: Critical temperature, K (Liquid); method: Visual observation in an unstirred cell
Mole fraction of n-octane	Critical temperature, K	uncertainty
.4356	561.1	.5
.685	564.7	.5

System: benzene + n-octane; phases: Liquid, Gas
Property: Critical density, kg/m3 (Liquid); method: Derived from PVT data
Mole fraction of n-octane	Critical density, kg/m3	uncertainty
.4356	294.8	5.896
.685	270.9	5.418

System: benzene + n-undecane; phases: Gas, Liquid
Property: Boiling temperature at pressure P, K (Gas); method: Visual Observation
Mass density, kg/m3	Mole fraction of n-undecane	Boiling temperature at pressure P, K	uncertainty
.0001318	.2493	600.8	.5
.0001696	.2493	599.5	.5
.000214	.2493	596.3	.5
.0002586	.2493	594	.5
.0000815	.4775	590	.5
.0001489	.4775	618.5	.5
.0001626	.4775	617.1	.5
.0001909	.4775	615.9	.5
.0002066	.4775	616.1	.5
.0002266	.4775	613.7	.5
.0000875	.7037	608.4	.5
.0001442	.7037	629.6	.5
.0002028	.7037	627.4	.5
.000241	.7037	626.6	.5

System: benzene + n-undecane; phases: Liquid, Gas
Property: Boiling temperature at pressure P, K (Liquid); method: Visual Observation
Mass density, kg/m3	Mole fraction of n-undecane	Boiling temperature at pressure P, K	uncertainty
279.6	.2493	592.6	.5
300.3	.2493	592	.5
315.1	.2493	591.7	.5
344.4	.2493	591	.5
346.8	.2493	591.3	.5
372.2	.2493	587.9	.5
444.5	.2493	576.4	.5
247.8	.4775	613.5	.5
255.8	.4775	613	.5
268	.4775	612.2	.5
270.6	.4775	613.6	.5
297.9	.4775	611.8	.5
263	.7037	626.6	.5
275.5	.7037	626.4	.5
277.1	.7037	625.8	.5
323.9	.7037	625.3	.5
349.7	.7037	624.1	.5
311.8	.4775	610.9	.5
327.7	.4775	610.9	.5
381.6	.4775	597.8	.5

System: benzene + n-undecane; phases: Liquid, Gas
Property: Critical temperature, K (Liquid); method: Visual observation in an unstirred cell
Mole fraction of n-undecane	Critical temperature, K	uncertainty
.2493	594.2	.5
.4775	613.9	.5
.7037	626.5	.5

System: benzene + n-undecane; phases: Liquid, Gas
Property: Critical density, kg/m3 (Liquid); method: Derived from PVT data
Mole fraction of n-undecane	Critical density, kg/m3	uncertainty
.2493	259.7	5.194
.4775	241.9	4.838
.7037	258.3	5.166

System: toluene + n-pentane; phases: Gas, Liquid
Property: Boiling temperature at pressure P, K (Gas); method: Visual Observation
Mass density, kg/m3	Mole fraction of n-pentane	Boiling temperature at pressure P, K	uncertainty
.0001745	.1622	577.3	.5
.0002279	.1622	575.4	.5
.0002614	.1622	573.6	.5
.0002824	.1622	573.2	.5
.0001327	.4531	528.8	.5
.0001569	.4531	556.3	.5
.0002298	.4531	542.2	.5
.000251	.4531	539.9	.5
.0002694	.4531	537.7	.5
.0000887	.5874	505.1	.5
.0001345	.5874	520.1	.5
.0001471	.5874	542.2	.5
.0001642	.5874	536.8	.5
.0001747	.5874	533.2	.5
.0001948	.5874	532.8	.5
.0002149	.5874	526.3	.5
.0002678	.5874	521.1	.5
.0002683	.5874	522.4	.5
.0001247	.7179	531.4	.5
.0001435	.7179	518.9	.5
.0001748	.7179	511.7	.5
.000211	.7179	508	.5
.0002395	.7179	505.3	.5
.0002587	.7179	503.8	.5

System: toluene + n-pentane; phases: Liquid, Gas
Property: Boiling temperature at pressure P, K (Liquid); method: Visual Observation
Mass density, kg/m3	Mole fraction of n-pentane	Boiling temperature at pressure P, K	uncertainty
.0003018	.1622	571.7	.5
.00035	.1622	569.6	.5
.0003961	.1622	568.6	.5
.0002846	.4531	536.7	.5
.0003208	.4531	533.5	.5
.0003507	.4531	529.7	.5
.0003116	.5874	519.3	.5
.0003589	.5874	515.4	.5
.0004171	.5874	510.1	.5
.0004693	.5874	492.7	.5
.0004934	.5874	479.3	.5
.0002761	.7179	503.2	.5
.0002951	.7179	501.9	.5

System: toluene + n-pentane; phases: Liquid, Gas
Property: Critical temperature, K (Liquid); method: Visual observation in an unstirred cell
Mole fraction of n-pentane	Critical temperature, K	uncertainty
.1622	572.9	.5
.4531	536.7	.5
.5874	520	.5
.7179	503.7	.5

System: toluene + n-pentane; phases: Liquid, Gas
Property: Critical density, kg/m3 (Liquid); method: Derived from PVT data
Mole fraction of n-pentane	Critical density, kg/m3	uncertainty
.1622	280.4	5.608
.4531	284.5	5.69
.5874	302.1	6.042
.7179	267.9	5.358

System: isopropylbenzene + n-pentane; phases: Gas, Liquid
Property: Boiling temperature at pressure P, K (Gas); method: Visual Observation
Mass density, kg/m3	Mole fraction of n-pentane	Boiling temperature at pressure P, K	uncertainty
.0001172	.3389	616.8	.5
.0001581	.3389	608.3	.5
.0002052	.3389	601.7	.5
.0002453	.3389	593.5	.5
.0000831	.566	585.2	.5
.0000965	.566	587.7	.5
.0001445	.566	579.8	.5
.0001825	.566	570.9	.5
.0002343	.566	556.9	.5
.0002479	.566	558.3	.5
.0002767	.566	553.9	.5
.0000932	.792	555.7	.5
.0001439	.792	542.2	.5
.0001654	.792	534.4	.5
.0001972	.792	521.9	.5
.0002331	.792	515.5	.5
.0002755	.792	510.8	.5

System: isopropylbenzene + n-pentane; phases: Liquid, Gas
Property: Boiling temperature at pressure P, K (Liquid); method: Visual Observation
Mass density, kg/m3	Mole fraction of n-pentane	Boiling temperature at pressure P, K	uncertainty
.0002964	.3389	590.7	.5
.0003246	.3389	587.1	.5
.0004012	.3389	574.6	.5
.0004745	.3389	557.1	.5
.0003015	.566	551.9	.5
.0003397	.566	547.1	.5
.0003673	.566	544.2	.5
.0004515	.566	526.8	.5
.0003476	.792	503.7	.5
.000416	.792	494.2	.5

System: isopropylbenzene + n-pentane; phases: Liquid, Gas
Property: Critical temperature, K (Liquid); method: Visual observation in an unstirred cell
Mole fraction of n-pentane	Critical temperature, K	uncertainty
.3389	592.9	.5
.566	552.8	.5
.792	510.6	.5

System: isopropylbenzene + n-pentane; phases: Liquid, Gas
Property: Critical density, kg/m3 (Liquid); method: Derived from PVT data
Mole fraction of n-pentane	Critical density, kg/m3	uncertainty
.3389	278.1	5.562
.566	295.8	5.916
.792	281	5.62

System: isopropylbenzene + n-hexane; phases: Gas, Liquid
Property: Boiling temperature at pressure P, K (Gas); method: Visual Observation
Mass density, kg/m3	Mole fraction of n-hexane	Boiling temperature at pressure P, K	uncertainty
.0001393	.2251	614.1	.5
.0001717	.2251	613.6	.5
.0001959	.2251	611.8	.5
.0002443	.2251	607.6	.5
.0001164	.5147	570.8	.5
.0001443	.5147	589.9	.5
.0001857	.5147	580.3	.5
.0002332	.5147	574.2	.5
.0002644	.5147	571.5	.5
.0001238	.6764	575.5	.5
.0001368	.6764	570.7	.5
.0001873	.6764	559.6	.5
.0002213	.6764	553.7	.5
.0002572	.6764	551.7	.5

System: isopropylbenzene + n-hexane; phases: Liquid, Gas
Property: Boiling temperature at pressure P, K (Liquid); method: Visual Observation
Mass density, kg/m3	Mole fraction of n-hexane	Boiling temperature at pressure P, K	uncertainty
.0002955	.2251	605.6	.5
.0003128	.2251	605.5	.5
.0004046	.2251	598.3	.5
.0002915	.5147	569.9	.5
.0003827	.5147	560.9	.5
.0003071	.6764	548.2	.5
.0003668	.6764	543.3	.5

System: isopropylbenzene + n-hexane; phases: Liquid, Gas
Property: Critical temperature, K (Liquid); method: Visual observation in an unstirred cell
Mole fraction of n-hexane	Critical temperature, K	uncertainty
.2251	606.1	.5
.5147	570.1	.5
.6764	549.2	.5

System: isopropylbenzene + n-hexane; phases: Liquid, Gas
Property: Critical density, kg/m3 (Liquid); method: Derived from PVT data
Mole fraction of n-hexane	Critical density, kg/m3	uncertainty
.2251	287	5.74
.5147	287.1	5.742
.6764	291.2	5.824

System: n-pentane + 2-methylbiphenyl; phases: Gas, Liquid
Property: Boiling temperature at pressure P, K (Gas); method: Visual Observation
Mass density, kg/m3	Mole fraction of n-pentane	Boiling temperature at pressure P, K	uncertainty
.0001291	.1119	749.6	.5
.0001898	.1119	758.1	.5
.0002262	.1119	756.7	.5
.0003131	.1119	749.8	.5
.0003469	.1119	745.1	.5
.0001016	.4933	716.7	.5
.000121	.4933	724.3	.5
.0001478	.4933	720.8	.5
.0002728	.4933	680.8	.5
.0003101	.4933	667.1	.5
.0003488	.4933	658.6	.5
.0001142	.6224	717.9	.5
.0001411	.6224	706.1	.5
.0001622	.6224	689.9	.5
.0002496	.6224	652	.5
.0003041	.6224	634.5	.5

System: n-pentane + 2-methylbiphenyl; phases: Liquid, Gas
Property: Boiling temperature at pressure P, K (Liquid); method: Visual Observation
Mass density, kg/m3	Mole fraction of n-pentane	Boiling temperature at pressure P, K	uncertainty
.0004101	.1119	741.7	.5
.0005094	.1119	725.6	.5
.0003796	.4933	655.9	.5
.0004255	.4933	637.9	.5
.0003366	.6224	620.1	.5
.0003762	.6224	612.3	.5
.0004057	.6224	599.1	.5

System: n-pentane + 2-methylbiphenyl; phases: Liquid, Gas
Property: Critical temperature, K (Liquid); method: Visual observation in an unstirred cell
Mole fraction of n-pentane	Critical temperature, K	uncertainty
.1119	742.1	.5
.4933	658.2	.5
.6224	624.6	.5

System: n-pentane + 2-methylbiphenyl; phases: Liquid, Gas
Property: Critical density, kg/m3 (Liquid); method: Derived from PVT data
Mole fraction of n-pentane	Critical density, kg/m3	uncertainty
.1119	401.1	8.022
.4933	358.5	7.17
.6224	331.3	6.626
