Measured thermophysical data. Thermodynamic measurement and modeling of vinyl fluoride solubility in aqueous lithium bis(trifluoromethylsulfonyl)imide Li+Tf2N- + H2O solutions
Source: Fluid Phase Equilib., 2017, 10.1016/j.fluid.2017.03.032
Compound 1: vinyl fluoride, C2H3F
Compound 2: lithium bis(trifluoromethylsulfonyl)imide, C2F6LiNO4S2
Compound 3: water, H2O, purity 99.9%

System: vinyl fluoride + water + lithium bis(trifluoromethylsulfonyl)imide; phases: Gas, Liquid
Property: Vapor or sublimation pressure, kPa (Gas); method: Closed cell (Static) method
Temperature, K	Mole fraction of vinyl fluoride	Mole fraction of lithium bis(trifluoromethylsulfonyl)imide	Vapor or sublimation pressure, kPa	uncertainty
282.95	0	.0156	1	
282.95	.0009	.0156	221	
282.95	.0016	.0156	425	
282.95	.0026	.0156	694	
282.95	.0033	.0155	925	
282.95	.0039	.0155	1122	
282.95	.0045	.0155	1326	
303.92	0	.0156	1	
303.92	.0008	.0156	356	
303.92	.0016	.0156	703	
303.92	.0022	.0156	1053	
303.92	.0028	.0155	1405	
303.92	.0033	.0155	1751	
303.92	.0037	.0155	2090	
303.92	.0041	.0155	2432	
303.92	.0043	.0155	2782	
372.48	0	.0156	1	
372.48	.0006	.0156	501	
372.48	.0011	.0156	922	
372.48	.0015	.0156	1342	
372.48	.002	.0156	1757	
372.48	.0023	.0156	2155	
372.48	.0027	.0156	2579	
372.48	.003	.0155	2975	
372.48	.0033	.0155	3392	
372.48	.0036	.0155	3793	

System: vinyl fluoride + water + lithium bis(trifluoromethylsulfonyl)imide; phases: Gas, Liquid
Property: Vapor or sublimation pressure, kPa (Gas); method: Closed cell (Static) method
Temperature, K	Mole fraction of vinyl fluoride	Mole fraction of lithium bis(trifluoromethylsulfonyl)imide	Vapor or sublimation pressure, kPa	uncertainty
283.05	0	.0402	1	
283.05	.001	.0401	211	
283.05	.002	.0401	421	
283.05	.003	.04	643	
283.05	.0039	.04	876	
283.05	.0047	.04	1060	
283.05	.0053	.0399	1251	
283.05	.006	.0399	1461	
283.05	.0066	.0399	1640	
303.93	0	.0402	1	
303.93	.0012	.0401	350	
303.93	.0023	.0401	702	
303.93	.0033	.04	1064	
303.93	.0042	.04	1399	
303.93	.005	.04	1739	
303.93	.0057	.0399	2081	
303.93	.0064	.0399	2421	
372.5	0	.0402	1	
372.5	.0011	.0401	521	
372.5	.0021	.0401	928	
372.5	.003	.04	1322	
372.5	.0039	.04	1734	
372.5	.0047	.04	2146	
372.5	.0055	.0399	2552	
372.5	.0063	.0399	2962	
372.5	.0072	.0399	3449	

System: vinyl fluoride + water + lithium bis(trifluoromethylsulfonyl)imide; phases: Gas, Liquid
Property: Vapor or sublimation pressure, kPa (Gas); method: Closed cell (Static) method
Temperature, K	Mole fraction of vinyl fluoride	Mole fraction of lithium bis(trifluoromethylsulfonyl)imide	Vapor or sublimation pressure, kPa	uncertainty
282.98	0	.2007	1	
282.98	.0058	.1995	200	
282.98	.0124	.1982	416	
282.98	.0193	.1968	629	
282.98	.0264	.1954	840	
282.98	.0334	.194	1040	
282.98	.0414	.1924	1260	
282.98	.0514	.1904	1514	
282.98	.0629	.1881	1781	
303.95	0	.2007	1	
303.95	.0071	.1993	339	
303.95	.0154	.1976	727	
303.95	.022	.1963	1031	
303.95	.0304	.1946	1404	
303.95	.0384	.193	1757	
303.95	.046	.1914	2082	
303.95	.0542	.1898	2426	
303.95	.0625	.1881	2769	
372.31	0	.2007	1	
372.31	.0047	.1998	452	
372.31	.0093	.1988	890	
372.31	.0131	.1981	1250	
372.31	.0175	.1972	1672	
372.31	.0217	.1963	2086	
372.31	.0257	.1955	2490	
372.31	.0299	.1947	2913	
372.31	.0338	.1939	3312	
372.31	.0377	.1931	3729	
