Measured thermophysical data. Study on the effect of increasing the chain length of the alkanol in excess molar enthalpies of mixtures containing 2-methoxy-2-methylpropane, 1-alkanol, decane
Source: Fluid Phase Equilib., 2010, 10.1016/j.fluid.2010.02.012
Compound 1: 1,1-dimethylethyl methyl ether, C5H12O, purity 99.8%
Compound 2: ethanol, C2H6O, purity 99.8%
Compound 3: decane, C10H22, purity 99%

System: ethanol + decane; phases: Liquid
Fixed: Pressure, kPa = 101
Fixed: Temperature, K = 298.18
Property: Excess molar enthalpy (molar enthalpy of mixing), kJ/mol (Liquid); method: Calvet calorimetry
Mole fraction of ethanol	Excess molar enthalpy (molar enthalpy of mixing), kJ/mol	uncertainty
.0881	.503	.00503
.1338	.595	.00595
.1766	.664	.00664
.2665	.726	.00726
.3141	.737	.00737
.4314	.738	.00738
.5931	.674	.00674
.6501	.641	.00641
.7248	.591	.00591
.7837	.535	.00535
.8079	.516	.00516
.848	.441	.00441
.8829	.374	.00374
.9377	.241	.00241
.962	.159	.00159

System: ethanol + decane + 1,1-dimethylethyl methyl ether; phases: Liquid
Fixed: Pressure, kPa = 101
Fixed: Temperature, K = 298.15
Property: Excess molar enthalpy (molar enthalpy of mixing), kJ/mol (Liquid); method: Calvet calorimetry
Mole fraction of 1,1-dimethylethyl methyl ether	Mole fraction of ethanol	Excess molar enthalpy (molar enthalpy of mixing), kJ/mol	uncertainty
.2415	.7329	.385	.00385
.2351	.7137	.467	.00467
.2276	.6907	.546	.00546
.2124	.6446	.673	.00673
.2023	.6141	.735	.00735
.1758	.5337	.834	.00834
.4639	.4722	.663	.00663
.4367	.4444	.777	.00777
.4135	.4208	.849	.00849
.3936	.4006	.893	.00893
.3662	.3727	.938	.00938
.3423	.3483	.966	.00966
.6852	.2385	.688	.00688
.6522	.227	.764	.00764
.6071	.2114	.845	.00845
.5622	.1957	.896	.00896
.5218	.1817	.93	.0093
.4421	.1539	.981	.00981
.161	.4885	.874	.00874
.1165	.3536	.896	.00896
.0979	.2971	.865	.00865
.0646	.1961	.75	.0075
.0384	.1165	.602	.00602
.2725	.2773	.994	.00994
.1988	.2024	.922	.00922
.1655	.1684	.853	.00853
.1093	.1113	.706	.00706
.0692	.0704	.558	.00558
.3819	.133	.957	.00957
.3238	.1127	.914	.00914
.2975	.1036	.882	.00882
.2053	.0715	.731	.00731
.1464	.051	.594	.00594
