Measured thermophysical data. Measurement and modelling of interfacial tension in methane/water and methane/brine systems at reservoir conditions
Source: Fluid Phase Equilib., 2016, 10.1016/j.fluid.2015.09.050
Compound 1: methane, CH4, purity 99.995%
Compound 2: water, H2O, purity 99.8%
Compound 3: sodium chloride, ClNa, purity 99%

System: methane + water; phases: Liquid, Gas
Property: Interfacial tension, N/m (Liquid); method: pendant drop method
Pressure, kPa	Temperature, K	Interfacial tension, N/m	uncertainty
3390	311	.06603	.00389
7540	311	.05995	.00356
14380	311	.05794	.00349
28210	311	.05229	.00326
44730	311	.05143	.00331
61300	311	.04928	.00324
81600	311	.05039	.00337
3650	373.2	.05476	.00324
10070	373.2	.05064	.00301
21140	373.2	.04829	.00292
30540	373.2	.04502	.00277
51020	373.2	.0422	.00268
60310	373.2	.04161	.00268
71050	373.2	.04192	.00273
82760	373.2	.04193	.00276
2740	423.2	.04923	.00291
7290	423.2	.04641	.00274
17170	423.2	.04269	.00256
27790	423.2	.04072	.00248
38470	423.2	.03835	.00237
48440	423.2	.03943	.00248
62280	423.2	.0386	.00246
75910	423.2	.03919	.00254
89770	423.2	.03867	.00253
2410	473.2	.04035	.00238
14090	473.2	.03486	.00209
21220	473.2	.0342	.00206
34790	473.2	.03244	.00199
51540	473.2	.03053	.00191
70120	473.2	.03146	.00202
83440	473.2	.03074	.00199

System: methane + sodium chloride + water; phases: Liquid, Gas
Property: Interfacial tension, N/m (Liquid); method: bubble rise method
Solvent: Mass fraction of sodium chloride	Temperature, K	Pressure, kPa	Interfacial tension, N/m	uncertainty
.0501	311	3310	.06467	.00381
.0501	311	7210	.06035	.00358
.0501	311	14190	.05642	.00338
.0501	311	24060	.05384	.00332
.0501	311	38690	.05022	.00318
.0501	311	57640	.05007	.00326
.0501	311	77220	.04918	.00326
.0501	373.2	3280	.05804	.00342
.0501	373.2	7220	.05313	.00314
.0501	373.2	14290	.05044	.003
.0501	373.2	23840	.04771	.00289
.0501	373.2	39160	.04494	.0028
.0501	373.2	58470	.04366	.00279
.0501	373.2	77910	.04297	.0028
.0501	423.2	3320	.05099	.003
.0501	423.2	7110	.04834	.00285
.0501	423.2	14000	.04512	.00269
.0501	423.2	24300	.04266	.00258
.0501	423.2	38230	.04111	.00253
.0501	423.2	58260	.03928	.00248
.0501	423.2	79570	.04065	.00263
.0501	423.2	90740	.04055	.00264
.0501	473.2	3920	.0427	.00252
.0501	473.2	7100	.04095	.00241
.0501	473.2	14160	.03839	.00228
.0501	473.2	24570	.03613	.00217
.0501	473.2	38060	.034	.00208
.0501	473.2	58580	.03291	.00206
.0501	473.2	81360	.03342	.00215
.1002	311	2840	.07401	.00436
.1002	311	7150	.06628	.00392
.1002	311	14350	.06266	.00376
.1002	311	24620	.05692	.0035
.1002	311	43090	.05497	.0035
.1002	311	57980	.05251	.0034
.1002	311	76190	.05358	.00353
.1002	311	91290	.05298	.00353
.1002	373.2	3190	.05969	.00351
.1002	373.2	7240	.05696	.00337
.1002	373.2	14070	.05301	.00317
.1002	373.2	24410	.05164	.00313
.1002	373.2	38470	.05045	.00312
.1002	373.2	58260	.04758	.00302
.1002	373.2	76530	.04709	.00304
.1002	373.2	92460	.04646	.00304
.1002	423.2	3790	.05095	.003
.1002	423.2	7140	.04925	.00291
.1002	423.2	14050	.04663	.00277
.1002	423.2	24370	.044	.00265
.1002	423.2	39510	.04176	.00257
.1002	423.2	59160	.04113	.00259
.1002	423.2	77400	.04141	.00266
.1002	423.2	92390	.04166	.0027
.1002	473.2	2820	.04546	.00268
.1002	473.2	7510	.04114	.00244
.1002	473.2	14330	.03881	.00231
.1002	473.2	24430	.03765	.00226
.1002	473.2	38400	.03628	.00221
.1002	473.2	57980	.03505	.00219
.1002	473.2	77570	.03463	.0022
.1002	473.2	90670	.03295	.00212
