Measured thermophysical data. Measurement of activity coefficient at infinite dilution for some bio-oil components in water and mass transfer study of bubbles in the dilutor.
Source: Fluid Phase Equilib., 2015, 10.1016/j.fluid.2015.01.010
Compound 1: 1-butanol, C4H10O, purity 99.9%
Compound 2: acrolein, C3H4O, purity 99%
Compound 3: valeraldehyde, C5H10O, purity 97%
Compound 4: furan, C4H4O, purity 99%
Compound 5: (E)-crotonaldehyde, C4H6O, purity 99%
Compound 6: water, H2O, purity 99.8%

System: 1-butanol + water; phases: Liquid
Fixed: Pressure, kPa = 101
Fixed: Mole fraction of 1-butanol = 0
Property: Activity coefficient of 1-butanol (Liquid); method: Chromatography
Temperature, K	Activity coefficient of 1-butanol	uncertainty
303.15	52	1
308.15	57	.1
313.15	58	1
318.15	64	.8
323.15	69	.7
328.15	72	.7
333.15	80	.8
338.15	78	.9

System: acrolein + water; phases: Liquid
Fixed: Pressure, kPa = 101
Fixed: Mole fraction of acrolein = 0
Property: Activity coefficient of acrolein (Liquid); method: Chromatography
Temperature, K	Activity coefficient of acrolein	uncertainty
298.15	20.9	.2
301.15	21.5	.2
303.15	21.4	.2
305.15	21.7	.2
308.15	22.4	.2
310.15	22.6	.2
313.15	23.1	.2
315.15	23.5	.2
318.15	24	.2
320.15	24.1	.2
323.15	24.1	.2
325.15	24.3	.2
328.15	24.3	.2
330.15	24.5	.2
333.15	24.4	.3

System: valeraldehyde + water; phases: Liquid
Fixed: Pressure, kPa = 101
Fixed: Mole fraction of valeraldehyde = 0
Property: Activity coefficient of valeraldehyde (Liquid); method: Chromatography
Temperature, K	Activity coefficient of valeraldehyde	uncertainty
298.15	220	2
303.15	260	2
308.15	276	2
313.15	302	3
318.15	324	3
323.15	339	4
328.15	350	4

System: furan + water; phases: Liquid
Fixed: Pressure, kPa = 101
Fixed: Mole fraction of furan = 0
Property: Activity coefficient of furan (Liquid); method: Chromatography
Temperature, K	Activity coefficient of furan	uncertainty
298.15	415	7
299.15	412	7
301.15	403	7
305.15	394	7
303.15	397	7
306.15	380	7
308.15	372	7
311.15	366	9
313.15	356	8

System: (E)-crotonaldehyde + water; phases: Liquid
Fixed: Pressure, kPa = 101
Fixed: Mole fraction of (E)-crotonaldehyde = 0
Property: Activity coefficient of (E)-crotonaldehyde (Liquid); method: Chromatography
Temperature, K	Activity coefficient of (E)-crotonaldehyde	uncertainty
298.15	39	.5
308.15	42.8	.4
313.15	44.4	.5
318.15	46.2	.6
323.15	47	.7
328.15	47.3	.6
333.15	48	.5
