Measured thermophysical data. Development and testing of a new apparatus for the measurement of  high-pressure low-temperature phase equilibria
Source: Fluid Phase Equilib., 2012, 10.1016/j.fluid.2012.05.024
Compound 1: methane, CH4, purity 99.9995%
Compound 2: water, H2O, purity 99.8%

System: methane + water; phases: Liquid, Gas
Property: Vapor or sublimation pressure, kPa (Liquid); method: Closed cell (Static) method
Temperature, K	Mole fraction of methane	Vapor or sublimation pressure, kPa	uncertainty
298.28	.001162	5430	50
298.31	.001461	7344	50
298.3	.001544	7638	50
298.29	.001612	8218	50
298.28	.001676	8447	50
298.3	.002026	11340	50
303.27	.000976	5334	50
303.27	.001218	6693	50
303.28	.001322	7174	50
303.28	.001985	12244	50

System: methane + water; phases: Gas, Liquid
Property: Vapor or sublimation pressure, kPa (Gas); method: Closed cell (Static) method
Temperature, K	Mole fraction of water	Vapor or sublimation pressure, kPa	uncertainty
298.21	.000576	5527	50
298.29	.000382	7934	50
298.3	.000275	11452	50
303.28	.000844	5246	50
303.28	.000642	7241	50
303.28	.000393	12345	50
