Measured thermophysical data. Dielectric constant and molecular association in binary mixtures of  N,N-dimethylethanolamine with alcohols and amides
Source: Fluid Phase Equilib., 2009, 10.1016/j.fluid.2009.07.009
Compound 1: 2-(N,N-dimethylamino)ethanol, C4H11NO, purity 98%
Compound 2: ethanol, C2H6O, purity 98%
Compound 3: 1,2-ethanediol, C2H6O2, purity 98%
Compound 4: 1,2,3-propanetriol, C3H8O3, purity 98%
Compound 5: formamide, CH3NO, purity 98%
Compound 6: dimethylformamide, C3H7NO, purity 98%
Compound 7: N,N-dimethylacetamide, C4H9NO, purity 98%

System: 2-(N,N-dimethylamino)ethanol; phases: Liquid
Fixed: Pressure, kPa = 101.325
Property: Relative permittivity at zero frequency (Liquid); method: Parallel plate capacitor
Temperature, K	Relative permittivity at zero frequency	uncertainty
303.15	17.18	.05154

System: ethanol; phases: Liquid
Fixed: Pressure, kPa = 101.325
Property: Relative permittivity at zero frequency (Liquid); method: Parallel plate capacitor
Temperature, K	Relative permittivity at zero frequency	uncertainty
303.15	23.87	.07161

System: 1,2-ethanediol; phases: Liquid
Fixed: Pressure, kPa = 101.325
Property: Relative permittivity at zero frequency (Liquid); method: Parallel plate capacitor
Temperature, K	Relative permittivity at zero frequency	uncertainty
303.15	39.84	.11952

System: 1,2,3-propanetriol; phases: Liquid
Fixed: Pressure, kPa = 101.325
Property: Relative permittivity at zero frequency (Liquid); method: Parallel plate capacitor
Temperature, K	Relative permittivity at zero frequency	uncertainty
303.15	41.17	.12351

System: formamide; phases: Liquid
Fixed: Pressure, kPa = 101.325
Property: Relative permittivity at zero frequency (Liquid); method: Parallel plate capacitor
Temperature, K	Relative permittivity at zero frequency	uncertainty
303.15	106.14	.31842

System: dimethylformamide; phases: Liquid
Fixed: Pressure, kPa = 101.325
Property: Relative permittivity at zero frequency (Liquid); method: Parallel plate capacitor
Temperature, K	Relative permittivity at zero frequency	uncertainty
303.15	36.55	.10965

System: N,N-dimethylacetamide; phases: Liquid
Fixed: Pressure, kPa = 101.325
Property: Relative permittivity at zero frequency (Liquid); method: Parallel plate capacitor
Temperature, K	Relative permittivity at zero frequency	uncertainty
303.15	37.72	.11316
