Measured thermophysical data. Buoyancy density measurements for 1-alkyl-3-methylimidazolium based ionic  liquids with tetrafluoroborate anion
Source: Fluid Phase Equilib., 2009, 10.1016/j.fluid.2009.04.021
Compound 1: 1-ethyl-3-methylimidazolium tetrafluoroborate, C6H11BF4N2, purity 99.8%
Compound 2: 1-butyl-3-methylimidazolium tetrafluoroborate, C8H15BF4N2, purity 99.9%
Compound 3: 1-hexyl-3-methylimidazolium tetrafluoroborate, C10H19BF4N2, purity 99%

System: 1-ethyl-3-methylimidazolium tetrafluoroborate; phases: Liquid
Fixed: Pressure, kPa = 101.325
Property: Mass density, kg/m3 (Liquid); method: Buoyancy - hydrostatic balance
Temperature, K	Mass density, kg/m3	uncertainty
293.41	1287.17	
298.14	1283.2	
303.08	1279.88	
307.94	1275.06	
313	1271.88	
318.7	1267.21	
322.5	1265.05	
328.4	1260.59	
332.78	1257.46	
338.22	1254.07	
343.05	1251.15	
347.97	1247.07	
353.07	1243.6	

System: 1-butyl-3-methylimidazolium tetrafluoroborate; phases: Liquid
Fixed: Pressure, kPa = 101.325
Property: Mass density, kg/m3 (Liquid); method: Buoyancy - hydrostatic balance
Temperature, K	Mass density, kg/m3	uncertainty
281.45	1213.36	
288.49	1207.91	
293.49	1204.59	
298.29	1200.69	
303.25	1196.93	
308.02	1192.73	
312.86	1190.14	
318.18	1185.49	
323.04	1183.15	
328.06	1179.55	
332.87	1175.86	
337.97	1172.99	
342.78	1169.84	
348.11	1166.78	
352.74	1163.68	

System: 1-butyl-3-methylimidazolium tetrafluoroborate; phases: Liquid
Fixed: Pressure, kPa = 101.325
Property: Mass density, kg/m3 (Liquid); method: Buoyancy - hydrostatic balance
Temperature, K	Mass density, kg/m3	uncertainty
283.01	1212.07	
288.41	1207.87	
293.2	1204.14	
298.19	1200.74	
303.04	1197.96	
308.14	1193.22	
313.44	1190.35	
318.17	1187.07	
323.06	1184.13	
327.58	1180.59	
333.24	1177.1	
337.9	1173.42	
343.45	1170.2	
347.5	1166.66	
350.81	1165.3	

System: 1-hexyl-3-methylimidazolium tetrafluoroborate; phases: Liquid
Fixed: Pressure, kPa = 101.325
Property: Mass density, kg/m3 (Liquid); method: Buoyancy - hydrostatic balance
Temperature, K	Mass density, kg/m3	uncertainty
283.61	1166.71	
288.57	1163.12	
293.48	1159.99	
298.22	1156.57	
303.11	1152.91	
308.16	1149.26	
313.25	1146.23	
318.33	1142.64	
323	1139.57	
328.63	1135.72	
333.69	1132.53	
338.15	1129.41	
343.04	1126.12	
348.26	1122.71	
352.72	1119.68	
