Measured thermophysical data. High-pressure phase behavior of ternary systems (carbon dioxide + alkanol + hydrophobic ionic liquid)
Source: Fluid Phase Equilib., 2010, 10.1016/j.fluid.2010.02.015
Compound 1: carbon dioxide, CO2
Compound 2: methanol, CH4O, purity 99.8%
Compound 3: 1-butanol, C4H10O, purity 99.8%
Compound 4: 1-butyl-3-methylimidazolium hexafluorophosphate, C8H15F6N2P, purity 99%
Compound 5: 1-hexyl-3-methylimidazolium bis[(trifluoromethyl)sulfonyl]imide, C12H19F6N3O4S2, purity 99%

System: methanol + carbon dioxide + 1-butyl-3-methylimidazolium hexafluorophosphate; phases: Liquid mixture 1, Liquid mixture 2, Gas
Property: Mass density, kg/m3 (Liquid mixture 1); method: Vibrating tube method
Temperature, K	Pressure, kPa	Mass density, kg/m3	uncertainty
293.15	4182	1075.2	1
293.15	4364	1106.6	.3
293.15	4439	1117.5	.5
293.15	4503	1123.4	.2
293.15	4637	1135.7	1
293.15	4724	1152.6	.8
293.15	4893	1168.4	.3
293.15	4935	1170.7	.5
293.15	4957	1175.8	.4
293.15	5055	1180.7	.9
293.15	5122	1187.6	.3
293.15	5440	1257.9	.7
313.15	7035	1052.5	1.8
313.15	7175	1074.6	1.4
313.15	7241	1084.8	.9
313.15	7433	1104.5	1
313.15	7541	1114.7	1
313.15	7632	1124.1	1.1
313.15	7731	1128.1	1.3
313.15	7848	1135	1.1
313.15	7868	1141.9	1.8
313.15	7976	1159	1.2
333.15	10340	961.7	1.7
333.15	10369	988.1	1.7
333.15	10611	1014.3	1.7
333.15	10680	1014.4	1.8
333.15	10763	1025.2	1.8
333.15	10901	1023.9	2.1
333.15	11004	1033.6	3
333.15	11033	1040.8	1.9
333.15	11128	1041.2	2

System: methanol + carbon dioxide + 1-butyl-3-methylimidazolium hexafluorophosphate; phases: Liquid mixture 2, Liquid mixture 1, Gas
Property: Mass density, kg/m3 (Liquid mixture 2); method: Vibrating tube method
Temperature, K	Pressure, kPa	Mass density, kg/m3	uncertainty
293.15	4182	1007.5	.2
293.15	4364	937.8	.5
293.15	4439	926.7	.2
293.15	4503	914.6	20.3
293.15	4637	899.6	.4
293.15	4724	894.5	.1
293.15	4893	887.4	.1
293.15	4935	886.2	2
293.15	4957	881	.8
293.15	5055	872.5	3.4
293.15	5122	871.7	.5
293.15	5440	862.7	33.5
313.15	7035	1002.8	1
313.15	7175	980.2	1
313.15	7241	978.3	1.3
313.15	7433	975.4	1
313.15	7541	968.3	1.2
313.15	7632	968.3	1.3
313.15	7731	957.5	2.5
313.15	7848	943	1.6
313.15	7868	937.4	1.3
313.15	7976	925.2	1.6
333.15	10340	944.8	2.9
333.15	10369	935.1	2.5
333.15	10611	926.9	2.2
333.15	10680	920.6	2.3
333.15	10763	915.2	2.5
333.15	10901	911.2	2.4
333.15	11004	907.8	7.1
333.15	11033	902.6	4.5
333.15	11128	889.6	2.5

System: methanol + carbon dioxide + 1-butyl-3-methylimidazolium hexafluorophosphate; phases: Liquid mixture 2, Liquid mixture 1, Gas
Property: Mole fraction of methanol (Liquid mixture 2); method: Chromatography
Property: Mole fraction of carbon dioxide (Liquid mixture 2); method: Chromatography
Property: Mole fraction of 1-butyl-3-methylimidazolium hexafluorophosphate (Liquid mixture 2); method: Chromatography
Property: Mole fraction of methanol (Liquid mixture 1); method: Chromatography
Property: Mole fraction of carbon dioxide (Liquid mixture 1); method: Chromatography
Property: Mole fraction of 1-butyl-3-methylimidazolium hexafluorophosphate (Liquid mixture 1); method: Chromatography
Temperature, K	Pressure, kPa	Mole fraction of methanol	uncertainty	Mole fraction of carbon dioxide	uncertainty	Mole fraction of 1-butyl-3-methylimidazolium hexafluorophosphate	uncertainty	Mole fraction of methanol	uncertainty	Mole fraction of carbon dioxide	uncertainty	Mole fraction of 1-butyl-3-methylimidazolium hexafluorophosphate	uncertainty
293.15	4182	.6037		.3603		.036		.5288		.3272		.1439	
293.15	5055	.4544		.54		.00557		.3606		.399		.2404	
293.15	5122	.4076		.5891		.00328		.3523		.407		.2407	
293.15	5440	.1915		.8071		.00137		.3523		.4071		.2406	
313.15	7035	.5248		.4452		.02997		.4788		.4022		.119	
313.15	7175	.5051		.4737		.02115		.4546		.4035		.1419	
313.15	7241	.4788		.5028		.01844		.4423		.4089		.1488	
313.15	7433	.4605		.5265		.01304		.4309		.4148		.1542	
313.15	7541	.4328		.5591		.0081		.4254		.4165		.1581	
313.15	7632	.4149		.5778		.00726		.4098		.4178		.1723	
313.15	7731	.3899		.6032		.00689		.4013		.4222		.1765	
293.15	4364	.5918		.376		.0322		.4918		.3414		.1668	
313.15	7848	.3301		.6642		.00568		.3939		.4231		.183	
313.15	7868	.3186		.6758		.0056		.3827		.4312		.1861	
313.15	7976	.1404		.8571		.00252		.3465		.4406		.2129	
333.15	10340	.4816		.4744		.04395		.5		.3913		.1087	
333.15	10369	.4729		.485		.0421		.4954		.3882		.1164	
333.15	10611	.4389		.5481		.013		.4895		.3878		.1227	
333.15	10680	.4371		.5499		.01304		.4871		.3872		.1257	
333.15	10763	.4136		.5787		.0077		.4771		.3838		.1391	
333.15	10901	.3695		.6257		.00475		.4693		.3833		.1474	
333.15	11004	.3629		.6329		.00418		.4603		.3777		.1624	
293.15	4439	.5868		.3816		.03165		.473		.3452		.1819	
333.15	11033	.3553		.6411		.00359		.4583		.3793		.163	
333.15	11128	.3444		.6527		.0029		.4564		.3746		.169	
293.15	4503	.56		.416		.02404		.4558		.3486		.1956	
293.15	4637	.5492		.4306		.0202		.436		.36		.204	
293.15	4724	.5447		.4412		.01412		.4114		.3697		.2189	
293.15	4893	.4991		.4905		.01038		.3874		.3841		.2285	
293.15	4935	.4865		.5037		.00981		.3797		.3874		.2329	
293.15	4957	.4736		.5185		.0079		.368		.3936		.2384	

System: 1-butanol + carbon dioxide + 1-hexyl-3-methylimidazolium bis[(trifluoromethyl)sulfonyl]imide; phases: Liquid mixture 1, Liquid mixture 2, Gas
Property: Mass density, kg/m3 (Liquid mixture 1); method: Vibrating tube method
Temperature, K	Pressure, kPa	Mass density, kg/m3	uncertainty
293.15	5383	1119.8	.3
293.15	5473	1142.3	1.6
293.15	5494	1146.6	.3
293.15	5552	1158.9	.8
293.15	5601	1179.8	.5
313.15	8049	1012.9	1.1
313.15	8072	1035	1.2
313.15	8127	1047	1.2
313.15	8183	1071.2	1.2
313.15	8229	1079.7	1.2
333.15	11269	868	1.9
333.15	11278	888.9	1.9
333.15	11284	894.3	1.9
333.15	11297	900.2	2
333.15	11343	920.2	2

System: 1-butanol + carbon dioxide + 1-hexyl-3-methylimidazolium bis[(trifluoromethyl)sulfonyl]imide; phases: Liquid mixture 2, Liquid mixture 1, Gas
Property: Mass density, kg/m3 (Liquid mixture 2); method: Vibrating tube method
Temperature, K	Pressure, kPa	Mass density, kg/m3	uncertainty
293.15	5383	984.6	.1
293.15	5473	953.5	.7
293.15	5494	933	1.2
293.15	5552	921.8	3.1
293.15	5601	915.2	14
313.15	8049	939.5	1.1
313.15	8072	926.4	1.1
313.15	8127	911.6	3.8
313.15	8183	891.3	1.2
313.15	8229	864.4	1.5
333.15	11269	813.4	3.2
333.15	11278	805.6	3.5
333.15	11284	800.5	2.4
333.15	11297	791.1	2.5
333.15	11343	790.3	2.4

System: 1-butanol + carbon dioxide + 1-hexyl-3-methylimidazolium bis[(trifluoromethyl)sulfonyl]imide; phases: Liquid mixture 1, Liquid mixture 2, Gas
Property: Mole fraction of carbon dioxide (Liquid mixture 1); method: Chromatography
Property: Mole fraction of 1-butanol (Liquid mixture 1); method: Chromatography
Property: Mole fraction of 1-hexyl-3-methylimidazolium bis[(trifluoromethyl)sulfonyl]imide (Liquid mixture 1); method: Chromatography
Property: Mole fraction of carbon dioxide (Liquid mixture 2); method: Chromatography
Property: Mole fraction of 1-butanol (Liquid mixture 2); method: Chromatography
Property: Mole fraction of 1-hexyl-3-methylimidazolium bis[(trifluoromethyl)sulfonyl]imide (Liquid mixture 2); method: Chromatography
Temperature, K	Pressure, kPa	Mole fraction of carbon dioxide	uncertainty	Mole fraction of 1-butanol	uncertainty	Mole fraction of 1-hexyl-3-methylimidazolium bis[(trifluoromethyl)sulfonyl]imide	uncertainty	Mole fraction of carbon dioxide	uncertainty	Mole fraction of 1-butanol	uncertainty	Mole fraction of 1-hexyl-3-methylimidazolium bis[(trifluoromethyl)sulfonyl]imide	uncertainty
293.15	5383	.75		.1709		.0791		.7012		.2978		.00095	
313.15	8229	.809		.1218		.0692		.8603		.1393		.00033	
333.15	11269	.6389		.3095		.0517		.7		.2942		.00583	
333.15	11278	.6391		.3035		.0574		.7256		.2716		.00276	
333.15	11284	.6396		.3017		.0586		.7312		.2663		.00253	
333.15	11297	.6411		.2969		.0619		.7328		.2655		.00174	
333.15	11343	.6426		.2935		.0639		.7492		.2498		.001	
293.15	5473	.7783		.1381		.0836		.7302		.2697		.00015	
293.15	5494	.7943		.1201		.0856		.7419		.258		.00012	
293.15	5552	.8311		.0825		.0864		.7807		.2192		.0001	
293.15	5601	.8524		.0593		.0883		.8848		.1151		.00005	
313.15	8049	.7556		.1939		.0505		.7706		.2282		.00122	
313.15	8072	.765		.1785		.0565		.7983		.2007		.00096	
313.15	8127	.7711		.1718		.0571		.8036		.1956		.00086	
313.15	8183	.794		.1394		.0666		.8376		.162		.00036	
