Measured thermophysical data. Validation of a new apparatus using the dynamic method for determining the critical properties of binary mixtures containing CO2 and a n-alkane
Source: Fluid Phase Equilib., 2012, 10.1016/j.fluid.2012.04.010
Compound 1: carbon dioxide, CO2
Compound 2: pentane, C5H12, purity 99%
Compound 3: heptane, C7H16, purity 99%
Compound 4: decane, C10H22, purity 99%

System: pentane + carbon dioxide; phases: Liquid, Gas
Property: Critical temperature, K (Liquid); method: Dynamic apparatus
Mole fraction of carbon dioxide	Critical temperature, K	uncertainty
0	469.7	.11
.10234	464.47	.11
.19664	458.16	.11
.3071	446.48	.11
.36793	441.12	.11
.45869	426.91	.11
.5045	421.73	.11
.59888	410.81	.11
.65721	393.97	.11
.71301	380.2	.11
.81915	360.66	.11
.86535	344.49	.11
.90203	330.5	.11

System: pentane + carbon dioxide; phases: Liquid, Gas
Property: Critical pressure, kPa (Liquid); method: Direct measurement
Mole fraction of carbon dioxide	Critical pressure, kPa	uncertainty
0	3369.6	7
.10234	4027.4	7
.19664	4725.4	7
.3071	5844.7	7
.36793	6623.7	7
.45869	7564.5	7
.5045	8015.2	7
.59888	8828.8	7
.65721	9401.5	7
.71301	9607.5	7
.81915	9481	7
.86535	8973	7
.90203	8530.8	7

System: decane + carbon dioxide; phases: Liquid, Gas
Property: Critical temperature, K (Liquid); method: Dynamic apparatus
Mole fraction of carbon dioxide	Critical temperature, K	uncertainty
0	617.92	.09
.20509	607.32	.09
.3987	591.43	.09
.50478	578.84	.09
.59458	564.13	.09
.65546	546.3	.09
.70161	534.04	.09
.76128	507.65	.09
.797	492.23	.09
.82231	472.75	.09
.88524	416.86	.09
.90079	385.23	.09
.92011	345.41	.09

System: decane + carbon dioxide; phases: Liquid, Gas
Property: Critical pressure, kPa (Liquid); method: Direct measurement
Mole fraction of carbon dioxide	Critical pressure, kPa	uncertainty
0	2110.5	8
.20509	3739.3	8
.3987	6021	8
.50478	7836	8
.59458	9482.6	8
.65546	11523.7	8
.70161	13123	8
.76128	15615.2	8
.797	16509.3	8
.82231	17501.5	8
.88524	18336.4	8
.90079	16922	8
.92011	12485.2	8

System: carbon dioxide + heptane; phases: Liquid, Gas
Property: Critical temperature, K (Liquid); method: Dynamic apparatus
Mole fraction of carbon dioxide	Critical temperature, K	uncertainty
0	540.28	.17
.11006	534.16	.17
.22329	526.07	.17
.30682	519.76	.17
.39612	509.88	.17
.51312	495.28	.17
.624	473.83	.17
.70092	458.5	.17
.75065	436.17	.17
.79446	418.76	.17
.82123	398.85	.17
.88465	364.69	.17
.93235	342.75	.17

System: carbon dioxide + heptane; phases: Liquid, Gas
Property: Critical pressure, kPa (Liquid); method: Direct measurement
Mole fraction of carbon dioxide	Critical pressure, kPa	uncertainty
0	2745.7	17
.11006	3628.3	17
.22329	4755.7	17
.30682	5526.3	17
.39612	6971.9	17
.51312	8497.6	17
.624	10427.5	17
.70092	11503	17
.75065	12365.5	17
.79446	13053.7	17
.82123	13231	17
.88465	11990.3	17
.93235	10165.6	17
