Measured thermophysical data. Phase equilibria of (water + levulinic acid + dibasic esters) ternary systems
Source: Fluid Phase Equilib., 2009, 10.1016/j.fluid.2009.04.017
Compound 1: 4-oxopentanoic acid, C5H8O3, purity 98%
Compound 2: dimethyl 1,4-butanedioate, C6H10O4, purity 98%
Compound 3: dimethyl pentanedioate, C7H12O4, purity 99%
Compound 4: dimethyl 1,6-hexanedioate, C8H14O4, purity 99%
Compound 5: water, H2O

System: 4-oxopentanoic acid; phases: Liquid
Fixed: Pressure, kPa = 101.325
Property: Mass density, kg/m3 (Liquid); method: Vibrating tube method
Temperature, K	Mass density, kg/m3	uncertainty
293.15	1133.5	.01

System: 4-oxopentanoic acid; phases: Liquid
Fixed: Pressure, kPa = 101.325
Property: Refractive index (Na D-line) (Liquid); method: Standard Abbe refractometry
Temperature, K	Refractive index (Na D-line)	uncertainty
293.15	1.4395	.00005

System: 4-oxopentanoic acid; phases: Liquid, Gas
Property: Boiling temperature at pressure P, K (Liquid); method: Manometric method
Pressure, kPa	Boiling temperature at pressure P, K	uncertainty
101.325	518.2	.1

System: dimethyl 1,4-butanedioate; phases: Liquid
Fixed: Pressure, kPa = 101.325
Property: Mass density, kg/m3 (Liquid); method: Vibrating tube method
Temperature, K	Mass density, kg/m3	uncertainty
293.15	1119.13	.01

System: dimethyl 1,4-butanedioate; phases: Liquid
Fixed: Pressure, kPa = 101.325
Property: Refractive index (Na D-line) (Liquid); method: Standard Abbe refractometry
Temperature, K	Refractive index (Na D-line)	uncertainty
293.15	1.41969	.00005

System: dimethyl 1,4-butanedioate; phases: Liquid, Gas
Property: Boiling temperature at pressure P, K (Liquid); method: Manometric method
Pressure, kPa	Boiling temperature at pressure P, K	uncertainty
101.325	469.2	.1

System: dimethyl pentanedioate; phases: Liquid
Fixed: Pressure, kPa = 101.325
Property: Mass density, kg/m3 (Liquid); method: Vibrating tube method
Temperature, K	Mass density, kg/m3	uncertainty
293.15	1087.67	.01

System: dimethyl pentanedioate; phases: Liquid
Fixed: Pressure, kPa = 101.325
Property: Refractive index (Na D-line) (Liquid); method: Standard Abbe refractometry
Temperature, K	Refractive index (Na D-line)	uncertainty
293.15	1.42454	.00005

System: dimethyl pentanedioate; phases: Liquid, Gas
Property: Boiling temperature at pressure P, K (Liquid); method: Manometric method
Pressure, kPa	Boiling temperature at pressure P, K	uncertainty
101.325	487.3	.1

System: dimethyl 1,6-hexanedioate; phases: Liquid
Fixed: Pressure, kPa = 101.325
Property: Mass density, kg/m3 (Liquid); method: Vibrating tube method
Temperature, K	Mass density, kg/m3	uncertainty
293.15	1061.72	.01

System: dimethyl 1,6-hexanedioate; phases: Liquid
Fixed: Pressure, kPa = 101.325
Property: Refractive index (Na D-line) (Liquid); method: Standard Abbe refractometry
Temperature, K	Refractive index (Na D-line)	uncertainty
293.15	1.42825	.00005

System: dimethyl 1,6-hexanedioate; phases: Liquid, Gas
Property: Boiling temperature at pressure P, K (Liquid); method: Manometric method
Pressure, kPa	Boiling temperature at pressure P, K	uncertainty
1.733	388	.1

System: water; phases: Liquid
Fixed: Pressure, kPa = 101.325
Property: Mass density, kg/m3 (Liquid); method: Vibrating tube method
Temperature, K	Mass density, kg/m3	uncertainty
293.15	999.9	.01

System: water; phases: Liquid
Fixed: Pressure, kPa = 101.325
Property: Refractive index (Na D-line) (Liquid); method: Standard Abbe refractometry
Temperature, K	Refractive index (Na D-line)	uncertainty
293.15	1.3324	.00005

System: water; phases: Liquid, Gas
Property: Boiling temperature at pressure P, K (Liquid); method: Manometric method
Pressure, kPa	Boiling temperature at pressure P, K	uncertainty
101.325	373.2	.1

System: dimethyl 1,4-butanedioate + 4-oxopentanoic acid + water; phases: Liquid mixture 1, Liquid mixture 2
Fixed: Temperature, K = 298.15
Fixed: Pressure, kPa = 101.3
Property: Mass fraction of 4-oxopentanoic acid (Liquid mixture 1); method: Chromatography
Mass fraction of water	Mass fraction of 4-oxopentanoic acid	uncertainty
.0552	0	.001
.0591	.0484	.001
.1047	.099	.001
.1566	.1449	.001
.1961	.1708	.001
.3142	.2008	.001
.4645	.1966	.001
.5722	.1707	.001
.6484	.1433	.001
.7671	.0973	.001
.863	.0499	.001
.8741	0	.001

System: dimethyl 1,4-butanedioate + 4-oxopentanoic acid + water; phases: Liquid mixture 2, Liquid mixture 1
Fixed: Pressure, kPa = 101.3
Property: Mass fraction of 4-oxopentanoic acid (Liquid mixture 2); method: Chromatography
Property: Mass fraction of water (Liquid mixture 1); method: Chromatography
Property: Mass fraction of 4-oxopentanoic acid (Liquid mixture 1); method: Chromatography
Temperature, K	Mass fraction of water	Mass fraction of 4-oxopentanoic acid	uncertainty	Mass fraction of water	uncertainty	Mass fraction of 4-oxopentanoic acid	uncertainty
298.15	.054	.052	.001	.859	.001	.059	.001
298.15	.073	.078	.001	.775	.001	.09	.001
298.15	.113	.114	.001	.71	.001	.127	.001
298.15	.203	.167	.001	.616	.001	.169	.001

System: 4-oxopentanoic acid + dimethyl pentanedioate + water; phases: Liquid mixture 1, Liquid mixture 2
Fixed: Temperature, K = 298.15
Fixed: Pressure, kPa = 101.3
Property: Mass fraction of 4-oxopentanoic acid (Liquid mixture 1); method: Chromatography
Mass fraction of water	Mass fraction of 4-oxopentanoic acid	uncertainty
.9419	0	.001
.9048	.0497	.001
.8202	.1033	.001
.7269	.1597	.001
.6794	.1863	.001
.5562	.2379	.001
.4715	.2513	.001
.3167	.264	.001
.2174	.2409	.001
.1394	.193	.001
.1185	.1624	.001
.0928	.1108	.001
.0722	.0561	.001
.0415	0	.001

System: 4-oxopentanoic acid + dimethyl pentanedioate + water; phases: Liquid mixture 1, Liquid mixture 2
Fixed: Pressure, kPa = 101.3
Property: Mass fraction of 4-oxopentanoic acid (Liquid mixture 1); method: Chromatography
Property: Mass fraction of water (Liquid mixture 2); method: Chromatography
Property: Mass fraction of 4-oxopentanoic acid (Liquid mixture 2); method: Chromatography
Temperature, K	Mass fraction of water	Mass fraction of 4-oxopentanoic acid	uncertainty	Mass fraction of water	uncertainty	Mass fraction of 4-oxopentanoic acid	uncertainty
298.15	.853	.075	.001	.064	.001	.053	.001
298.15	.765	.142	.001	.126	.001	.093	.001
298.15	.709	.178	.001	.163	.001	.123	.001
298.15	.604	.224	.001	.21	.001	.183	.001

System: 4-oxopentanoic acid + dimethyl 1,6-hexanedioate + water; phases: Liquid mixture 1, Liquid mixture 2
Fixed: Temperature, K = 298.15
Fixed: Pressure, kPa = 101.3
Property: Mass fraction of 4-oxopentanoic acid (Liquid mixture 1); method: Chromatography
Mass fraction of water	Mass fraction of 4-oxopentanoic acid	uncertainty
.0383	0	.001
.0277	.0593	.001
.0649	.1058	.001
.0852	.1613	.001
.1004	.1973	.001
.1467	.2533	.001
.1776	.2901	.001
.2457	.3203	.001
.3761	.3355	.001
.5382	.2995	.001
.623	.2667	.001
.7118	.2075	.001
.7588	.1739	.001
.8436	.1091	.001
.9085	.0515	.001
.97	0	.001

System: 4-oxopentanoic acid + dimethyl 1,6-hexanedioate + water; phases: Liquid mixture 1, Liquid mixture 2
Fixed: Pressure, kPa = 101.3
Property: Mass fraction of water (Liquid mixture 1); method: Chromatography
Property: Mass fraction of 4-oxopentanoic acid (Liquid mixture 2); method: Chromatography
Property: Mass fraction of water (Liquid mixture 2); method: Chromatography
Temperature, K	Mass fraction of 4-oxopentanoic acid	Mass fraction of water	uncertainty	Mass fraction of 4-oxopentanoic acid	uncertainty	Mass fraction of water	uncertainty
298.15	.059	.905	.001	.041	.001	.024	.001
298.15	.102	.86	.001	.065	.001	.025	.001
298.15	.142	.809	.001	.107	.001	.044	.001
298.15	.19	.73	.001	.151	.001	.079	.001
298.15	.224	.7	.001	.186	.001	.094	.001
