Measured thermophysical data. Absorption of CO2 with methanol and ionic liquid mixture at low temperatures
Source: Fluid Phase Equilib., 2015, 10.1016/j.fluid.2015.02.002
Compound 1: methanol, CH4O, purity 99.99%
Compound 2: carbon dioxide, CO2, purity 99.995%
Compound 3: 1-octyl-3-methylimidazolium bis(trifluoromethylsulfonyl)imide, C14H23F6N3O4S2, purity 99%

System: methanol + carbon dioxide + 1-octyl-3-methylimidazolium bis(trifluoromethylsulfonyl)imide; phases: Gas, Liquid
Property: Mole fraction of carbon dioxide (Gas); method: Chromatography
Temperature, K	Mole fraction of methanol	Solvent: Mass fraction of 1-octyl-3-methylimidazolium bis(trifluoromethylsulfonyl)imide	Mole fraction of carbon dioxide	uncertainty
273.2	.0525	.2	.989	.003
273.2	.0959	.2	.9931	.003
273.2	.1106	.2	.9944	.001
273.2	.1382	.2	.9945	.002
273.2	.1821	.2	.9962	.001
273.2	.2083	.2	.9966	.001
273.2	.3276	.2	.997	.001
273.2	.4243	.2	.9973	.001
258.2	.1046	.2	.9966	.001
258.2	.1273	.2	.9968	.001
258.2	.159	.2	.997	.001
258.2	.2078	.2	.9973	.002
258.2	.2394	.2	.9975	.001
258.2	.3703	.2	.9981	.001
258.2	.4704	.2	.9984	.001
243.2	.0621	.2	.9966	.002
243.2	.113	.2	.9973	.002
243.2	.1458	.2	.9975	.001
243.2	.1841	.2	.9977	.001
243.2	.2352	.2	.9981	.001
243.2	.4085	.2	.9985	.001
243.2	.5042	.2	.9988	.001
228.2	.0842	.2	.9985	.001
228.2	.1458	.2	.9988	.001
228.2	.2146	.2	.9989	.001
228.2	.367	.2	.9992	.001
228.2	.5224	.2	.9993	.001
273.2	.1089	.5	.9915	.003
273.2	.1106	.5	.9927	.002
273.2	.1824	.5	.9957	.001
273.2	.2587	.5	.9967	.001
273.2	.3381	.5	.9974	.001
258.2	.1059	.5	.9959	.002
258.2	.1443	.5	.9973	.001
258.2	.2288	.5	.9975	.001
258.2	.2943	.5	.9979	.001
258.2	.3855	.5	.9984	.001
243.2	.1387	.5	.9981	.002
243.2	.2625	.5	.9984	.001
243.2	.3394	.5	.9985	.001
243.2	.4354	.5	.9986	.001
228.2	.1143	.5	.9985	.001
228.2	.264	.5	.9986	.001
228.2	.4004	.5	.9986	.001
228.2	.45	.5	.999	.001
273.2	.1429	.8	.9957	.002
273.2	.1463	.8	.9966	.003
273.2	.2466	.8	.9967	.002
273.2	.3243	.8	.9971	.001
273.2	.3774	.8	.9974	.001
273.2	.4351	.8	.9978	.001
273.2	.5017	.8	.9981	.002
258.2	.1981	.8	.9973	.002
258.2	.2102	.8	.9979	.001
258.2	.3125	.8	.9979	.001
258.2	.4078	.8	.9982	.001
258.2	.5018	.8	.9986	.001
258.2	.5756	.8	.9988	.001
243.2	.1417	.8	.9942	.003
243.2	.3269	.8	.9978	.001
243.2	.4497	.8	.9985	.001
243.2	.5094	.8	.9986	.001
243.2	.5757	.8	.9992	.001
228.2	.2003	.8	.9993	.001
228.2	.3884	.8	.9997	.001
228.2	.4971	.8	.9999	.001
228.2	.563	.8	.9999	.001

System: methanol + carbon dioxide + 1-octyl-3-methylimidazolium bis(trifluoromethylsulfonyl)imide; phases: Gas, Liquid
Property: Vapor or sublimation pressure, kPa (Gas); method: Isochoric PVT apparatus
Temperature, K	Mole fraction of methanol	Mass fraction of 1-octyl-3-methylimidazolium bis(trifluoromethylsulfonyl)imide	Vapor or sublimation pressure, kPa	uncertainty
273.2	.0525	.2	370	2
273.2	.0959	.2	720	3
273.2	.1106	.2	780	2
273.2	.1382	.2	990	1
273.2	.1821	.2	1320	3
273.2	.2083	.2	1520	1
273.2	.3276	.2	2340	2
273.2	.4243	.2	2830	1
258.2	.1046	.2	530	1
258.2	.1273	.2	610	2
258.2	.159	.2	760	3
258.2	.2078	.2	1020	1
258.2	.2394	.2	1140	1
258.2	.3703	.2	1710	2
258.2	.4704	.2	1990	2
243.2	.0621	.2	180	1
243.2	.113	.2	360	2
243.2	.1458	.2	430	2
243.2	.1841	.2	520	2
243.2	.2352	.2	720	2
243.2	.4085	.2	1120	1
243.2	.5042	.2	1280	2
228.2	.0842	.2	190	2
228.2	.1458	.2	290	1
228.2	.2146	.2	410	2
228.2	.367	.2	600	1
228.2	.5224	.2	740	3
273.2	.1089	.5	520	3
273.2	.1106	.5	620	2
273.2	.1824	.5	1180	1
273.2	.2587	.5	1490	1
273.2	.3381	.5	2090	2
258.2	.1059	.5	420	2
258.2	.1443	.5	490	3
258.2	.2288	.5	930	2
258.2	.2943	.5	1170	1
258.2	.3855	.5	1600	1
243.2	.1387	.5	310	3
243.2	.2625	.5	670	2
243.2	.3394	.5	780	1
243.2	.4354	.5	1060	3
228.2	.1143	.5	220	1
228.2	.264	.5	420	2
228.2	.4004	.5	630	2
228.2	.45	.5	710	2
273.2	.1429	.8	480	3
273.2	.1463	.8	570	1
273.2	.2466	.8	990	1
273.2	.3243	.8	1320	1
273.2	.3774	.8	1640	2
273.2	.4351	.8	1990	1
273.2	.5017	.8	2390	2
258.2	.1981	.8	530	1
258.2	.2102	.8	580	1
258.2	.3125	.8	890	1
258.2	.4078	.8	1160	1
258.2	.5018	.8	1520	1
258.2	.5756	.8	1860	1
243.2	.1417	.8	250	1
243.2	.3269	.8	540	2
243.2	.4497	.8	820	3
243.2	.5094	.8	1030	2
243.2	.5757	.8	1220	1
228.2	.2003	.8	210	2
228.2	.3884	.8	460	2
228.2	.4971	.8	620	1
228.2	.563	.8	750	2

System: methanol + carbon dioxide; phases: Gas, Liquid
Property: Mole fraction of carbon dioxide (Gas); method: Chromatography
Temperature, K	Mole fraction of carbon dioxide	Mole fraction of carbon dioxide	uncertainty
273.2	.0702	.9919	.002
273.2	.1718	.9953	.001
273.2	.2301	.996	.001
273.2	.2487	.9964	.001
273.2	.3886	.9974	.001
273.2	.5201	.9979	.002
258.2	.0763	.9957	.002
258.2	.1892	.9973	.001
258.2	.2452	.9975	.002
258.2	.29	.9978	.001
258.2	.4146	.9982	.001
258.2	.5408	.9985	.001
243.2	.0782	.9973	.001
243.2	.1993	.9981	.001
243.2	.2588	.9984	.001
243.2	.4158	.9986	.001
243.2	.5416	.9989	.001
228.2	.0652	.9982	.001
228.2	.1702	.9984	.001
228.2	.2603	.9984	.001
228.2	.3895	.9986	.001
228.2	.5478	.9988	.001

System: methanol + carbon dioxide; phases: Liquid, Gas
Property: Vapor or sublimation pressure, kPa (Liquid); method: Isochoric PVT apparatus
Temperature, K	Mole fraction of carbon dioxide	Vapor or sublimation pressure, kPa	uncertainty
273.2	.0702	600	2
273.2	.1718	1310	3
273.2	.2301	1650	2
273.2	.2487	1780	2
273.2	.3886	2490	1
273.2	.5201	3020	1
258.2	.0763	420	1
258.2	.1892	900	3
258.2	.2452	1190	2
258.2	.29	1250	3
258.2	.4146	1710	1
258.2	.5408	2050	3
243.2	.0782	273	2
243.2	.1993	609	3
243.2	.2588	781	2
243.2	.4158	1045	1
243.2	.5416	1298	1
228.2	.0652	154	2
228.2	.1702	338	2
228.2	.2603	450	2
228.2	.3895	601	1
228.2	.5478	751	3

System: carbon dioxide + 1-octyl-3-methylimidazolium bis(trifluoromethylsulfonyl)imide; phases: Gas, Liquid
Property: Vapor or sublimation pressure, kPa (Gas); method: Isochoric PVT apparatus
Temperature, K	Mole fraction of carbon dioxide	Vapor or sublimation pressure, kPa	uncertainty
273.2	.1646	320	2
273.2	.3165	710	2
273.2	.4325	1070	1
273.2	.4849	1350	2
273.2	.5055	1460	2
273.2	.6015	1990	1
258.2	.1965	270	1
258.2	.3635	590	1
258.2	.4913	910	1
258.2	.531	1070	2
258.2	.5548	1160	1
258.2	.6508	1560	2
243.2	.2391	210	2
243.2	.4154	460	2
243.2	.5587	720	1
243.2	.5769	780	1
243.2	.603	850	1
243.2	.6961	1110	1
228.2	.3558	210	2
228.2	.4725	310	1
228.2	.6173	500	3
228.2	.6268	510	2
228.2	.6439	540	1
228.2	.7306	690	1
