Measured thermophysical data. Measurements and correlations of density and viscosity for short chain (C1-C3) n-alcohol - water mixtures in the temperature range from 350.7 K to 476.2 K at pressures up to 40 MPa
Source: Fluid Phase Equilib., 2016, 10.1016/j.fluid.2015.07.012
Compound 1: water, H2O
Compound 2: methanol, CH4O, purity 99.5%
Compound 3: ethanol, C2H6O, purity 99.5%
Compound 4: n-propanol, C3H8O, purity 99.5%

System: methanol + water; phases: Liquid
Property: Mass density, kg/m3 (Liquid); method: Vibrating tube method
Temperature, K	Pressure, kPa	Mole fraction of methanol	Mass density, kg/m3	uncertainty
350.7	10000	.1	945.55	5
350.7	10000	.2	917.41	5
350.7	10000	.3	889.97	5
350.7	10000	.4	865.13	5
350.7	10000	.6	819.84	5
350.7	10000	.8	780.91	5
350.7	20000	.1	949.82	5
350.7	20000	.2	921.49	5
350.7	20000	.3	895.56	5
350.7	20000	.4	870.55	5
350.7	20000	.6	827.75	5
350.7	20000	.8	789.25	5
350.7	30000	.1	954.11	5
350.7	30000	.2	927.03	5
350.7	30000	.3	901.14	5
350.7	30000	.4	876.99	5
350.7	30000	.6	835.46	5
350.7	30000	.8	797.6	5
350.7	40000	.1	958.39	5
350.7	40000	.2	931.54	5
350.7	40000	.3	906.05	5
350.7	40000	.4	882.71	5
350.7	40000	.6	842.38	5
350.7	40000	.8	805.96	5
373.2	10000	.1	928.71	5
373.2	10000	.2	900.41	5
373.2	10000	.3	870.61	5
373.2	10000	.4	845.4	5
373.2	10000	.6	799.33	5
373.2	10000	.8	758.8	5
373.2	10000	1	725.29	5
373.2	20000	.1	932.78	5
373.2	20000	.2	904.78	5
373.2	20000	.3	877.31	5
373.2	20000	.4	851.97	5
373.2	20000	.6	807.98	5
373.2	20000	.8	770.24	5
373.2	20000	1	737.85	5
373.2	30000	.1	939.53	5
373.2	30000	.2	911.46	5
373.2	30000	.3	883.51	5
373.2	30000	.4	858.91	5
373.2	30000	.6	817.6	5
373.2	30000	.8	780.53	5
373.2	30000	1	748.83	5
373.2	40000	.1	943.52	5
373.2	40000	.2	914.74	5
373.2	40000	.3	889.33	5
373.2	40000	.4	864.81	5
373.2	40000	.6	823.64	5
373.2	40000	.8	789.08	5
373.2	40000	1	758.66	5
476.2	10000	.1	822.65	5
476.2	10000	.2	781.47	5
476.2	10000	.3	746.74	5
476.2	10000	.4	714.67	5
476.2	10000	.6	664.45	5
476.2	10000	.8	617.54	5
476.2	10000	1	576.84	5
476.2	20000	.1	831.4	5
476.2	20000	.2	792.25	5
476.2	20000	.3	760.72	5
476.2	20000	.4	730.97	5
476.2	20000	.6	685.36	5
476.2	20000	.8	647.18	5
476.2	20000	1	612.56	5
476.2	30000	.1	838.61	5
476.2	30000	.2	802.47	5
476.2	30000	.3	772.18	5
476.2	30000	.4	744.11	5
476.2	30000	.6	703.08	5
476.2	30000	.8	668.6	5
476.2	30000	1	636.82	5
476.2	40000	.1	845.82	5
476.2	40000	.2	810.27	5
476.2	40000	.3	780.67	5
476.2	40000	.4	754.89	5
476.2	40000	.6	715.13	5
476.2	40000	.8	683.43	5
476.2	40000	1	655.67	5

System: methanol + water; phases: Liquid
Property: Viscosity, Pa*s (Liquid); method: Capillary tube (Ostwald; Ubbelohde) method
Temperature, K	Pressure, kPa	Mole fraction of methanol	Viscosity, Pa*s	uncertainty
350.7	10000	.1	.000448	.000011
350.7	10000	.2	.000503	.000011
350.7	10000	.3	.000514	.000011
350.7	10000	.4	.000512	.000011
350.7	10000	.6	.000449	.000011
350.7	10000	.8	.000379	.000011
350.7	10000	1	.000298	.000011
350.7	20000	.1	.000454	.000011
350.7	20000	.2	.000514	.000011
350.7	20000	.3	.000528	.000011
350.7	20000	.4	.000529	.000011
350.7	20000	.6	.00047	.000011
350.7	20000	.8	.0004	.000011
350.7	20000	1	.000313	.000011
350.7	30000	.1	.000458	.000011
350.7	30000	.2	.000526	.000011
350.7	30000	.3	.000542	.000011
350.7	30000	.4	.000544	.000011
350.7	30000	.6	.000494	.000011
350.7	30000	.8	.000416	.000011
350.7	30000	1	.000331	.000011
350.7	40000	.1	.000473	.000011
350.7	40000	.2	.000543	.000011
350.7	40000	.3	.000558	.000011
350.7	40000	.4	.000565	.000011
350.7	40000	.6	.000519	.000011
350.7	40000	.8	.000443	.000011
350.7	40000	1	.000351	.000011
373.2	10000	.1	.00033	.000011
373.2	10000	.2	.000358	.000011
373.2	10000	.3	.000364	.000011
373.2	10000	.4	.00036	.000011
373.2	10000	.6	.000324	.000011
373.2	10000	.8	.000276	.000011
373.2	10000	1	.000227	.000011
373.2	20000	.1	.000337	.000011
373.2	20000	.2	.000368	.000011
373.2	20000	.3	.000378	.000011
373.2	20000	.4	.000375	.000011
373.2	20000	.6	.000342	.000011
373.2	20000	.8	.000294	.000011
373.2	20000	1	.00025	.000011
373.2	30000	.1	.000339	.000011
373.2	30000	.2	.000372	.000011
373.2	30000	.3	.000385	.000011
373.2	30000	.4	.000382	.000011
373.2	30000	.6	.000353	.000011
373.2	30000	.8	.000307	.000011
373.2	30000	1	.000259	.000011
373.2	40000	.1	.000347	.000011
373.2	40000	.2	.000382	.000011
373.2	40000	.3	.000398	.000011
373.2	40000	.4	.000399	.000011
373.2	40000	.6	.000368	.000011
373.2	40000	.8	.000326	.000011
373.2	40000	1	.000275	.000011
476.2	10000	.1	.000141	.000011
476.2	10000	.2	.00014	.000011
476.2	10000	.3	.000136	.000011
476.2	10000	.4	.000129	.000011
476.2	10000	.6	.000115	.000011
476.2	10000	.8	.000101	.000011
476.2	10000	1	.000088	.000011
476.2	20000	.1	.000144	.000011
476.2	20000	.2	.000143	.000011
476.2	20000	.3	.000144	.000011
476.2	20000	.4	.000138	.000011
476.2	20000	.6	.000123	.000011
476.2	20000	.8	.000113	.000011
476.2	20000	1	.0001	.000011
476.2	30000	.1	.000148	.000011
476.2	30000	.2	.00015	.000011
476.2	30000	.3	.000146	.000011
476.2	30000	.4	.000144	.000011
476.2	30000	.6	.000131	.000011
476.2	30000	.8	.000122	.000011
476.2	30000	1	.000109	.000011
476.2	40000	.1	.000151	.000011
476.2	40000	.2	.000152	.000011
476.2	40000	.3	.000152	.000011
476.2	40000	.4	.000149	.000011
476.2	40000	.6	.00014	.000011
476.2	40000	.8	.000129	.000011
476.2	40000	1	.000116	.000011

System: ethanol + water; phases: Liquid
Property: Mass density, kg/m3 (Liquid); method: Vibrating tube method
Temperature, K	Pressure, kPa	Mole fraction of ethanol	Mass density, kg/m3	uncertainty
350.7	10000	.1	933.68	5
350.7	10000	.2	895.78	5
350.7	10000	.3	863.89	5
350.7	10000	.4	838.33	5
350.7	10000	.6	798.55	5
350.7	10000	.8	768.37	5
350.7	10000	1	745.63	5
350.7	20000	.1	936.77	5
350.7	20000	.2	900.9	5
350.7	20000	.3	870.14	5
350.7	20000	.4	845.24	5
350.7	20000	.6	807.87	5
350.7	20000	.8	778.79	5
350.7	20000	1	757.47	5
350.7	30000	.1	941.46	5
350.7	30000	.2	905.65	5
350.7	30000	.3	876.58	5
350.7	30000	.4	852.53	5
350.7	30000	.6	815.61	5
350.7	30000	.8	787.77	5
350.7	30000	1	766.87	5
350.7	40000	.1	945.15	5
350.7	40000	.2	911.39	5
350.7	40000	.3	881.9	5
350.7	40000	.4	859.05	5
350.7	40000	.6	822.93	5
350.7	40000	.8	795.87	5
350.7	40000	1	775.75	5
373.2	10000	.1	913.36	5
373.2	10000	.2	874.72	5
373.2	10000	.3	842.36	5
373.2	10000	.4	815.79	5
373.2	10000	.6	776.56	5
373.2	10000	.8	747.1	5
373.2	10000	1	726.87	5
373.2	20000	.1	918.8	5
373.2	20000	.2	880.64	5
373.2	20000	.3	849.56	5
373.2	20000	.4	823.45	5
373.2	20000	.6	785.48	5
373.2	20000	.8	757.25	5
373.2	20000	1	738.25	5
373.2	30000	.1	924.46	5
373.2	30000	.2	886.74	5
373.2	30000	.3	856.1	5
373.2	30000	.4	830.81	5
373.2	30000	.6	794.06	5
373.2	30000	.8	767.44	5
373.2	30000	1	750.02	5
373.2	40000	.1	928.74	5
373.2	40000	.2	892.24	5
373.2	40000	.3	862.39	5
373.2	40000	.4	837.9	5
373.2	40000	.6	801.93	5
373.2	40000	.8	776.49	5
373.2	40000	1	757.87	5
476.2	10000	.1	802.54	5
476.2	10000	.2	752.52	5
476.2	10000	.3	713.85	5
476.2	10000	.4	682.37	5
476.2	10000	.6	636.05	5
476.2	10000	.8	605.36	5
476.2	10000	1	582.85	5
476.2	20000	.1	810.76	5
476.2	20000	.2	764.89	5
476.2	20000	.3	728.6	5
476.2	20000	.4	700.31	5
476.2	20000	.6	658.71	5
476.2	20000	.8	633.16	5
476.2	20000	1	613.37	5
476.2	30000	.1	819.25	5
476.2	30000	.2	776.24	5
476.2	30000	.3	743.62	5
476.2	30000	.4	717.25	5
476.2	30000	.6	679.71	5
476.2	30000	.8	656.43	5
476.2	30000	1	638.82	5
476.2	40000	.1	827.58	5
476.2	40000	.2	786.01	5
476.2	40000	.3	754.08	5
476.2	40000	.4	730.44	5
476.2	40000	.6	694.35	5
476.2	40000	.8	671.76	5
476.2	40000	1	656.07	5

System: ethanol + water; phases: Liquid
Property: Viscosity, Pa*s (Liquid); method: Capillary tube (Ostwald; Ubbelohde) method
Temperature, K	Pressure, kPa	Mole fraction of ethanol	Viscosity, Pa*s	uncertainty
350.7	10000	.1	.000537	.000011
350.7	10000	.2	.000625	.000011
350.7	10000	.3	.000632	.000011
350.7	10000	.4	.00064	.000011
350.7	10000	.6	.000595	.000011
350.7	10000	.8	.000531	.000011
350.7	10000	1	.000461	.000011
350.7	20000	.1	.000546	.000011
350.7	20000	.2	.000638	.000011
350.7	20000	.3	.000661	.000011
350.7	20000	.4	.000669	.000011
350.7	20000	.6	.000624	.000011
350.7	20000	.8	.00057	.000011
350.7	20000	1	.000518	.000011
350.7	30000	.1	.000556	.000011
350.7	30000	.2	.000651	.000011
350.7	30000	.3	.000684	.000011
350.7	30000	.4	.000691	.000011
350.7	30000	.6	.000654	.000011
350.7	30000	.8	.000601	.000011
350.7	30000	1	.000555	.000011
350.7	40000	.1	.000578	.000011
350.7	40000	.2	.000681	.000011
350.7	40000	.3	.000726	.000011
350.7	40000	.4	.000737	.000011
350.7	40000	.6	.000695	.000011
350.7	40000	.8	.000643	.000011
350.7	40000	1	.00059	.000011
373.2	10000	.1	.000401	.000011
373.2	10000	.2	.000448	.000011
373.2	10000	.3	.000461	.000011
373.2	10000	.4	.000462	.000011
373.2	10000	.6	.000434	.000011
373.2	10000	.8	.000381	.000011
373.2	10000	1	.000364	.000011
373.2	20000	.1	.000397	.000011
373.2	20000	.2	.000449	.000011
373.2	20000	.3	.000473	.000011
373.2	20000	.4	.000477	.000011
373.2	20000	.6	.000451	.000011
373.2	20000	.8	.000406	.000011
373.2	20000	1	.000382	.000011
373.2	30000	.1	.000403	.000011
373.2	30000	.2	.000459	.000011
373.2	30000	.3	.000484	.000011
373.2	30000	.4	.000489	.000011
373.2	30000	.6	.000461	.000011
373.2	30000	.8	.000439	.000011
373.2	30000	1	.000404	.000011
373.2	40000	.1	.000421	.000011
373.2	40000	.2	.000483	.000011
373.2	40000	.3	.000515	.000011
373.2	40000	.4	.000509	.000011
373.2	40000	.6	.000489	.000011
373.2	40000	.8	.000456	.000011
373.2	40000	1	.000443	.000011
476.2	10000	.1	.000148	.000011
476.2	10000	.2	.000151	.000011
476.2	10000	.3	.000144	.000011
476.2	10000	.4	.000139	.000011
476.2	10000	.6	.000125	.000011
476.2	10000	.8	.000113	.000011
476.2	10000	1	.000107	.000011
476.2	20000	.1	.000152	.000011
476.2	20000	.2	.000157	.000011
476.2	20000	.3	.000153	.000011
476.2	20000	.4	.000148	.000011
476.2	20000	.6	.000138	.000011
476.2	20000	.8	.000129	.000011
476.2	20000	1	.000123	.000011
476.2	30000	.1	.000159	.000011
476.2	30000	.2	.000164	.000011
476.2	30000	.3	.000164	.000011
476.2	30000	.4	.000159	.000011
476.2	30000	.6	.00015	.000011
476.2	30000	.8	.000144	.000011
476.2	30000	1	.000138	.000011
476.2	40000	.1	.000164	.000011
476.2	40000	.2	.000168	.000011
476.2	40000	.3	.000172	.000011
476.2	40000	.4	.000167	.000011
476.2	40000	.6	.000161	.000011
476.2	40000	.8	.000155	.000011
476.2	40000	1	.000151	.000011

System: n-propanol + water; phases: Liquid
Property: Mass density, kg/m3 (Liquid); method: Vibrating tube method
Temperature, K	Pressure, kPa	Mole fraction of n-propanol	Mass density, kg/m3	uncertainty
350.7	10000	.1	919.5	5
350.7	10000	.2	878.37	5
350.7	10000	.3	847.8	5
350.7	10000	.4	826	5
350.7	10000	.6	796.1	5
350.7	10000	.8	776.11	5
350.7	10000	1	763.09	5
350.7	20000	.1	924.38	5
350.7	20000	.2	883.66	5
350.7	20000	.3	854.62	5
350.7	20000	.4	833.03	5
350.7	20000	.6	804.64	5
350.7	20000	.8	786.05	5
350.7	20000	1	772.75	5
350.7	30000	.1	929.09	5
350.7	30000	.2	889.66	5
350.7	30000	.3	861.08	5
350.7	30000	.4	840.74	5
350.7	30000	.6	812.37	5
350.7	30000	.8	794.61	5
350.7	30000	1	781.33	5
350.7	40000	.1	934.42	5
350.7	40000	.2	895.4	5
350.7	40000	.3	866.79	5
350.7	40000	.4	847.26	5
350.7	40000	.6	819.69	5
350.7	40000	.8	802.32	5
350.7	40000	1	789.02	5
373.2	10000	.1	900.32	5
373.2	10000	.2	857.3	5
373.2	10000	.3	827.05	5
373.2	10000	.4	804.56	5
373.2	10000	.6	774.56	5
373.2	10000	.8	755.44	5
373.2	10000	1	741.54	5
373.2	20000	.1	905.78	5
373.2	20000	.2	863.27	5
373.2	20000	.3	834.28	5
373.2	20000	.4	813.43	5
373.2	20000	.6	784.28	5
373.2	20000	.8	765.59	5
373.2	20000	1	752.5	5
373.2	30000	.1	911.46	5
373.2	30000	.2	869.79	5
373.2	30000	.3	842.03	5
373.2	30000	.4	820.4	5
373.2	30000	.6	792.47	5
373.2	30000	.8	774.18	5
373.2	30000	1	762.28	5
373.2	40000	.1	916.96	5
373.2	40000	.2	875.69	5
373.2	40000	.3	848.33	5
373.2	40000	.4	827.89	5
373.2	40000	.6	800.74	5
373.2	40000	.8	782.84	5
373.2	40000	1	770.94	5
476.2	10000	.1	790.18	5
476.2	10000	.2	739.33	5
476.2	10000	.3	702.79	5
476.2	10000	.4	678.7	5
476.2	10000	.6	646.98	5
476.2	10000	.8	627.55	5
476.2	10000	1	612.56	5
476.2	20000	.1	799.73	5
476.2	20000	.2	752.08	5
476.2	20000	.3	718.75	5
476.2	20000	.4	697.03	5
476.2	20000	.6	667.25	5
476.2	20000	.8	651.81	5
476.2	20000	1	640.86	5
476.2	30000	.1	810.27	5
476.2	30000	.2	764.81	5
476.2	30000	.3	733.87	5
476.2	30000	.4	713.61	5
476.2	30000	.6	686.56	5
476.2	30000	.8	672.08	5
476.2	30000	1	662.44	5
476.2	40000	.1	818.93	5
476.2	40000	.2	775.35	5
476.2	40000	.3	745.92	5
476.2	40000	.4	726.38	5
476.2	40000	.6	700.42	5
476.2	40000	.8	686.68	5
476.2	40000	1	677.8	5

System: n-propanol + water; phases: Liquid
Property: Viscosity, Pa*s (Liquid); method: Capillary tube (Ostwald; Ubbelohde) method
Temperature, K	Pressure, kPa	Mole fraction of n-propanol	Viscosity, Pa*s	uncertainty
350.7	10000	.1	.000591	.000011
350.7	10000	.2	.000723	.000011
350.7	10000	.3	.00077	.000011
350.7	10000	.4	.000758	.000011
350.7	10000	.6	.000737	.000011
350.7	10000	.8	.000689	.000011
350.7	10000	1	.000694	.000011
350.7	20000	.1	.000611	.000011
350.7	20000	.2	.000763	.000011
350.7	20000	.3	.000814	.000011
350.7	20000	.4	.00081	.000011
350.7	20000	.6	.000774	.000011
350.7	20000	.8	.000736	.000011
350.7	20000	1	.000753	.000011
350.7	30000	.1	.00063	.000011
350.7	30000	.2	.00081	.000011
350.7	30000	.3	.00085	.000011
350.7	30000	.4	.00086	.000011
350.7	30000	.6	.000848	.000011
350.7	30000	.8	.000827	.000011
350.7	30000	1	.000823	.000011
350.7	40000	.1	.000635	.000011
350.7	40000	.2	.000826	.000011
350.7	40000	.3	.000861	.000011
350.7	40000	.4	.000883	.000011
350.7	40000	.6	.00088	.000011
350.7	40000	.8	.000864	.000011
350.7	40000	1	.000869	.000011
373.2	10000	.1	.000439	.000011
373.2	10000	.2	.000504	.000011
373.2	10000	.3	.000531	.000011
373.2	10000	.4	.000514	.000011
373.2	10000	.6	.00051	.000011
373.2	10000	.8	.00049	.000011
373.2	10000	1	.000488	.000011
373.2	20000	.1	.000441	.000011
373.2	20000	.2	.000513	.000011
373.2	20000	.3	.00055	.000011
373.2	20000	.4	.000542	.000011
373.2	20000	.6	.000541	.000011
373.2	20000	.8	.000531	.000011
373.2	20000	1	.000533	.000011
373.2	30000	.1	.000455	.000011
373.2	30000	.2	.000533	.000011
373.2	30000	.3	.000577	.000011
373.2	30000	.4	.00057	.000011
373.2	30000	.6	.000576	.000011
373.2	30000	.8	.000572	.000011
373.2	30000	1	.000581	.000011
373.2	40000	.1	.000463	.000011
373.2	40000	.2	.000547	.000011
373.2	40000	.3	.000599	.000011
373.2	40000	.4	.0006	.000011
373.2	40000	.6	.000611	.000011
373.2	40000	.8	.000614	.000011
373.2	40000	1	.000613	.000011
476.2	10000	.1	.000161	.000011
476.2	10000	.2	.000162	.000011
476.2	10000	.3	.000157	.000011
476.2	10000	.4	.000153	.000011
476.2	10000	.6	.000145	.000011
476.2	10000	.8	.000139	.000011
476.2	10000	1	.000137	.000011
476.2	20000	.1	.000171	.000011
476.2	20000	.2	.000172	.000011
476.2	20000	.3	.00017	.000011
476.2	20000	.4	.00017	.000011
476.2	20000	.6	.000161	.000011
476.2	20000	.8	.000157	.000011
476.2	20000	1	.000157	.000011
476.2	30000	.1	.000175	.000011
476.2	30000	.2	.000181	.000011
476.2	30000	.3	.000183	.000011
476.2	30000	.4	.000189	.000011
476.2	30000	.6	.000178	.000011
476.2	30000	.8	.000173	.000011
476.2	30000	1	.000176	.000011
476.2	40000	.1	.000179	.000011
476.2	40000	.2	.000189	.000011
476.2	40000	.3	.000195	.000011
476.2	40000	.4	.00021	.000011
476.2	40000	.6	.000195	.000011
476.2	40000	.8	.000188	.000011
476.2	40000	1	.000192	.000011
