Measured thermophysical data. Catechin sublimation pressure and solubility in supercritical carbon dioxide
Source: Fluid Phase Equilib., 2013, 10.1016/j.fluid.2013.08.012
Compound 1: (+)-catechin hydrate, C15H16O7, purity 98%
Compound 2: ethanol, C2H6O, purity 99.9%
Compound 3: carbon dioxide, CO2, purity 99.99%

System: ethanol + carbon dioxide + (+)-catechin hydrate; phases: Fluid (supercritical or subcritical phases), Crystal
Fixed: Solvent: Mole fraction of ethanol = .05
Property: Mole fraction of (+)-catechin hydrate (Fluid (supercritical or subcritical phases)); method: Phase equilibration
Temperature, K	Pressure, kPa	Mole fraction of (+)-catechin hydrate	uncertainty
313.15	12000	.000000067	.0000000013
313.15	13000	.000000089	.0000000018
313.15	14000	.000000126	.0000000025
313.15	15000	.000000137	.0000000027
313.15	16000	.000000176	.0000000035
313.15	17000	.000000187	.0000000037
313.15	18000	.000000208	.0000000042
313.15	19000	.000000261	.0000000052
313.15	20000	.000000262	.0000000052
313.15	21000	.000000289	.0000000057
313.15	22000	.000000343	.0000000069
313.15	23000	.000000344	.0000000069
313.15	24000	.00000037	.0000000074
313.15	25000	.000000426	.0000000085
313.15	26000	.000000425	.0000000084
323.15	12000	.00000008	.0000000016
323.15	13000	.00000016	.0000000032
323.15	14000	.000000212	.0000000042
323.15	15000	.000000294	.0000000059
323.15	16000	.000000378	.0000000075
323.15	17000	.000000466	.0000000093
323.15	18000	.000000559	.0000000111
323.15	19000	.000000707	.0000000141
323.15	20000	.000000801	.000000016
323.15	21000	.000000914	.0000000182
323.15	22000	.000001021	.0000000204
323.15	23000	.000001036	.0000000207
323.15	24000	.000001128	.0000000225
323.15	25000	.000001364	.0000000273
323.15	26000	.000001465	.0000000293
333.15	12000	.000000082	.0000000016
333.15	13000	.000000181	.0000000036
333.15	14000	.000000297	.0000000059
333.15	15000	.000000524	.0000000105
333.15	16000	.000000689	.0000000138
333.15	17000	.000000951	.000000019
333.15	18000	.000001193	.0000000239
333.15	19000	.000001484	.0000000297
333.15	20000	.000001933	.0000000386
333.15	21000	.00000227	.0000000454
333.15	22000	.00000248	.0000000496
333.15	23000	.000002998	.0000000599
333.15	24000	.000003472	.0000000694
333.15	25000	.000003822	.0000000764
333.15	26000	.000003899	.000000078
343.15	12000	.000000083	.0000000016
343.15	13000	.000000189	.0000000038
343.15	14000	.00000042	.0000000084
343.15	15000	.00000075	.000000015
343.15	16000	.000001094	.0000000219
343.15	17000	.00000163	.0000000325
343.15	18000	.000002439	.0000000488
343.15	19000	.000002886	.0000000577
343.15	20000	.000004027	.0000000805
343.15	21000	.000004612	.0000000922
343.15	22000	.000006076	.0000001215
343.15	23000	.00000642	.0000001284
343.15	24000	.000008268	.0000001654
343.15	25000	.000008603	.0000001721
343.15	26000	.00001068	.0000002136
