Measured thermophysical data. Measurement and correlation of liquid liquid equilibrium data for 2-methyl-1-propanol + 2-propanol + water at several temperatures
Source: Fluid Phase Equilib., 2013, 10.1016/j.fluid.2012.11.040
Compound 1: water, H2O, purity 99.8%
Compound 2: ethanol, C2H6O, purity 99.7%
Compound 3: isopropanol, C3H8O, purity 99.5%
Compound 4: isobutyl alcohol, C4H10O, purity 99%

System: water; phases: Liquid
Fixed: Pressure, kPa = 101.325
Property: Mass density, kg/m3 (Liquid); method: Vibrating tube method
Temperature, K	Mass density, kg/m3	uncertainty
293.15	998.4	

System: water; phases: Liquid
Fixed: Pressure, kPa = 101.325
Property: Refractive index (Na D-line) (Liquid); method: Standard Abbe refractometry
Temperature, K	Refractive index (Na D-line)	uncertainty
293.15	1.3328	

System: water; phases: Liquid, Gas
Property: Normal boiling temperature, K (Liquid); method: Distillation
Normal boiling temperature, K	uncertainty
373.2	.05

System: ethanol; phases: Liquid
Fixed: Pressure, kPa = 101.325
Property: Mass density, kg/m3 (Liquid); method: Vibrating tube method
Temperature, K	Mass density, kg/m3	uncertainty
293.15	790	

System: ethanol; phases: Liquid
Fixed: Pressure, kPa = 101.325
Property: Refractive index (Na D-line) (Liquid); method: Standard Abbe refractometry
Temperature, K	Refractive index (Na D-line)	uncertainty
293.15	1.3616	

System: ethanol; phases: Liquid, Gas
Property: Normal boiling temperature, K (Liquid); method: Distillation
Normal boiling temperature, K	uncertainty
351.55	.05

System: isopropanol; phases: Liquid
Fixed: Pressure, kPa = 101.325
Property: Mass density, kg/m3 (Liquid); method: Vibrating tube method
Temperature, K	Mass density, kg/m3	uncertainty
293.15	785.9	

System: isopropanol; phases: Liquid
Fixed: Pressure, kPa = 101.325
Property: Refractive index (Na D-line) (Liquid); method: Standard Abbe refractometry
Temperature, K	Refractive index (Na D-line)	uncertainty
293.15	1.3779	

System: isopropanol; phases: Liquid, Gas
Property: Normal boiling temperature, K (Liquid); method: Distillation
Normal boiling temperature, K	uncertainty
355.55	.05

System: isobutyl alcohol; phases: Liquid
Fixed: Pressure, kPa = 101.325
Property: Mass density, kg/m3 (Liquid); method: Vibrating tube method
Temperature, K	Mass density, kg/m3	uncertainty
293.15	801.7	

System: isobutyl alcohol; phases: Liquid
Fixed: Pressure, kPa = 101.325
Property: Refractive index (Na D-line) (Liquid); method: Standard Abbe refractometry
Temperature, K	Refractive index (Na D-line)	uncertainty
293.15	1.3955	

System: isobutyl alcohol; phases: Liquid, Gas
Property: Normal boiling temperature, K (Liquid); method: Distillation
Normal boiling temperature, K	uncertainty
380.15	.05

System: isopropanol + isobutyl alcohol + water; phases: Liquid mixture 2, Liquid mixture 1
Property: Mole fraction of isobutyl alcohol (Liquid mixture 2); method: Chromatography
Property: Mole fraction of isobutyl alcohol (Liquid mixture 1); method: Chromatography
Property: Mole fraction of isopropanol (Liquid mixture 1); method: Chromatography
Temperature, K	Pressure, kPa	Mole fraction of isopropanol	Mole fraction of isobutyl alcohol	uncertainty	Mole fraction of isobutyl alcohol	uncertainty	Mole fraction of isopropanol	uncertainty
298.15	101.325	.0045	.0107	.001	.5026	.001	.0247	.001
298.15	101.325	.0493	.0164	.001	.2902	.001	.1817	.001
298.15	101.325	.0582	.0177	.001	.2619	.001	.1985	.001
298.15	101.325	.0646	.0187	.001	.2427	.001	.2087	.001
323.15	101.325	.0039	.0163	.001	.4942	.001	.0259	.001
323.15	101.325	.0067	.0165	.001	.4738	.001	.0427	.001
323.15	101.325	.0096	.0168	.001	.4534	.001	.0592	.001
323.15	101.325	.0142	.0172	.001	.4232	.001	.0832	.001
323.15	101.325	.0174	.0174	.001	.4032	.001	.0988	.001
323.15	101.325	.0226	.0179	.001	.3733	.001	.1214	.001
323.15	101.325	.0282	.0184	.001	.3439	.001	.143	.001
298.15	101.325	.0076	.0111	.001	.4829	.001	.0408	.001
323.15	101.325	.0322	.0187	.001	.3243	.001	.1567	.001
323.15	101.325	.0387	.0193	.001	.2953	.001	.1764	.001
323.15	101.325	.0435	.0197	.001	.2762	.001	.1888	.001
323.15	101.325	.0512	.0203	.001	.2476	.001	.2061	.001
323.15	101.325	.057	.0209	.001	.2288	.001	.2167	.001
348.15	101.325	.0036	.0238	.001	.4806	.001	.0265	.001
348.15	101.325	.0061	.0238	.001	.4596	.001	.0437	.001
348.15	101.325	.0088	.0238	.001	.4388	.001	.0605	.001
348.15	101.325	.0129	.0238	.001	.4078	.001	.085	.001
348.15	101.325	.0159	.0238	.001	.3874	.001	.1008	.001
298.15	101.325	.0126	.0117	.001	.4536	.001	.0644	.001
348.15	101.325	.0205	.0237	.001	.3574	.001	.1237	.001
348.15	101.325	.0256	.0237	.001	.3277	.001	.1454	.001
348.15	101.325	.0291	.0237	.001	.3083	.001	.1594	.001
348.15	101.325	.0349	.0236	.001	.2796	.001	.1792	.001
348.15	101.325	.0391	.0236	.001	.2608	.001	.1918	.001
348.15	101.325	.0508	.0234	.001	.2146	.001	.2201	.001
298.15	101.325	.0161	.0121	.001	.4341	.001	.0797	.001
298.15	101.325	.0198	.0125	.001	.4148	.001	.0947	.001
298.15	101.325	.0257	.0132	.001	.3857	.001	.1164	.001
298.15	101.325	.0298	.0138	.001	.3665	.001	.1304	.001
298.15	101.325	.0366	.0146	.001	.3379	.001	.1506	.001
298.15	101.325	.0414	.0153	.001	.3186	.001	.1634	.001
