Measured thermophysical data. Phase behavior and solid-liquid equilibria of aliphatic and aromatic carboxylic acid mixtures
Source: Fluid Phase Equilib., 2016, 10.1016/j.fluid.2015.12.021
Compound 1: adipic acid, C6H10O4, purity 99.5%
Compound 2: benzoic acid, C7H6O2, purity 99.5%
Compound 3: naphthalene, C10H8, purity 98%
Compound 4: phenanthrene, C14H10, purity 98%
Compound 5: stearic acid, C18H36O2, purity 98%
Compound 6: p-toluic acid, C8H8O2, purity 98%

System: adipic acid; phases: Crystal, Liquid, Air at 1 atmosphere
Property: Normal melting temperature, K (Crystal); method: Visual observation
Normal melting temperature, K	uncertainty
426.35	

System: benzoic acid; phases: Crystal, Liquid, Air at 1 atmosphere
Property: Normal melting temperature, K (Crystal); method: Visual observation
Normal melting temperature, K	uncertainty
395.5	

System: naphthalene; phases: Crystal, Liquid, Air at 1 atmosphere
Property: Normal melting temperature, K (Crystal); method: Visual observation
Normal melting temperature, K	uncertainty
353.41	

System: phenanthrene; phases: Crystal, Liquid, Air at 1 atmosphere
Property: Normal melting temperature, K (Crystal); method: Visual observation
Normal melting temperature, K	uncertainty
372.39	

System: stearic acid; phases: Crystal, Liquid, Air at 1 atmosphere
Property: Normal melting temperature, K (Crystal); method: Visual observation
Normal melting temperature, K	uncertainty
342.95	

System: p-toluic acid; phases: Crystal, Liquid, Air at 1 atmosphere
Property: Normal melting temperature, K (Crystal); method: Visual observation
Normal melting temperature, K	uncertainty
452.75	

System: phenanthrene + naphthalene; phases: Crystal, Crystal, Liquid, Air at 1 atmosphere
Fixed: Pressure, kPa = 101.325
Property: Eutectic temperature, K (Crystal); method: DSC/DTA
Eutectic temperature, K	uncertainty
321.88	

System: phenanthrene + naphthalene; phases: Liquid, Crystal
Fixed: Pressure, kPa = 101
Property: Solid-liquid equilibrium temperature, K (Liquid); method: DSC/DTA
Mole fraction of naphthalene	Solid-liquid equilibrium temperature, K	uncertainty
0	370.32	
.1	362.58	
.2	355.22	
.3	346.25	
.4	336.35	
.5	326.02	

System: phenanthrene + naphthalene; phases: Liquid, Crystal
Fixed: Pressure, kPa = 101
Property: Solid-liquid equilibrium temperature, K (Liquid); method: DSC/DTA
Mole fraction of naphthalene	Solid-liquid equilibrium temperature, K	uncertainty
.6	324.18	
.7	332.48	
.8	339.22	
.9	346.42	
1	351.98	

System: benzoic acid + p-toluic acid; phases: Crystal, Crystal, Liquid, Air at 1 atmosphere
Fixed: Pressure, kPa = 101.325
Property: Eutectic temperature, K (Crystal); method: DSC/DTA
Eutectic temperature, K	uncertainty
366.26	

System: benzoic acid + p-toluic acid; phases: Liquid, Crystal
Fixed: Pressure, kPa = 101
Property: Solid-liquid equilibrium temperature, K (Liquid); method: DSC/DTA
Mole fraction of p-toluic acid	Solid-liquid equilibrium temperature, K	uncertainty
0	396.28	
.05	383.25	
.1	371.55	
.15	369.65	
.2	369.85	
.225	368.85	

System: benzoic acid + p-toluic acid; phases: Liquid, Crystal
Fixed: Pressure, kPa = 101
Property: Solid-liquid equilibrium temperature, K (Liquid); method: DSC/DTA
Mole fraction of p-toluic acid	Solid-liquid equilibrium temperature, K	uncertainty
.3	370.2	
.35	381.75	
.4	389.9	
.5	403.1	
.6	416.25	
.7	426.4	
.8	436.3	
.9	443.95	
1	451.6	

System: benzoic acid + adipic acid; phases: Crystal, Crystal, Liquid, Air at 1 atmosphere
Fixed: Pressure, kPa = 101.325
Property: Eutectic temperature, K (Crystal); method: DSC/DTA
Eutectic temperature, K	uncertainty
376.5	

System: benzoic acid + adipic acid; phases: Liquid, Crystal
Fixed: Pressure, kPa = 101
Property: Solid-liquid equilibrium temperature, K (Liquid); method: DSC/DTA
Mole fraction of adipic acid	Solid-liquid equilibrium temperature, K	uncertainty
0	396.28	
.05	387.88	
.1	384.12	
.15	377.98	
.2	378.08	

System: benzoic acid + adipic acid; phases: Liquid, Crystal
Fixed: Pressure, kPa = 101
Property: Solid-liquid equilibrium temperature, K (Liquid); method: DSC/DTA
Mole fraction of adipic acid	Solid-liquid equilibrium temperature, K	uncertainty
.25	378.08	
.3	381.62	
.4	392.95	
.5	399.98	
.6	406.05	
.7	410.82	
.8	415.68	
.9	420.75	
1	425.58	

System: stearic acid + benzoic acid; phases: Crystal, Crystal, Liquid, Air at 1 atmosphere
Fixed: Pressure, kPa = 101.325
Property: Eutectic temperature, K (Crystal); method: DSC/DTA
Eutectic temperature, K	uncertainty
332.4	

System: stearic acid + benzoic acid; phases: Liquid, Crystal
Fixed: Pressure, kPa = 101
Property: Solid-liquid equilibrium temperature, K (Liquid); method: DSC/DTA
Mole fraction of stearic acid	Solid-liquid equilibrium temperature, K	uncertainty
0	396.28	
.1	384.35	
.2	371.48	
.3	360.25	
.4	346.4	
.5	343.35	
.6	333.88	

System: stearic acid + benzoic acid; phases: Liquid, Crystal
Fixed: Pressure, kPa = 101
Property: Solid-liquid equilibrium temperature, K (Liquid); method: DSC/DTA
Mole fraction of stearic acid	Solid-liquid equilibrium temperature, K	uncertainty
.7	335.78	
.8	338.18	
.9	340.12	
1	341.78	
