Measured thermophysical data. Experimental isobaric vapor-liquid equilibrium for the binary and ternary systems with methanol, methyl acetate and dimethyl sulfoxide at 101.3 kPa
Source: Fluid Phase Equilib., 2016, 10.1016/j.fluid.2015.08.014
Compound 1: methyl acetate, C3H6O2
Compound 2: methanol, CH4O
Compound 3: dimethyl sulfoxide [DMSO], C2H6OS

System: methyl acetate; phases: Liquid, Gas
Property: Boiling temperature at pressure P, K (Liquid); method: Ebulliometric method (Recirculating still)
Pressure, kPa	Boiling temperature at pressure P, K	uncertainty
101.3	330.02	.01

System: methyl acetate; phases: Liquid
Fixed: Pressure, kPa = 101.325
Property: Mass density, kg/m3 (Liquid); method: Vibrating tube method
Temperature, K	Mass density, kg/m3	uncertainty
298.15	927.6	.1

System: methanol; phases: Liquid, Gas
Property: Boiling temperature at pressure P, K (Liquid); method: Ebulliometric method (Recirculating still)
Pressure, kPa	Boiling temperature at pressure P, K	uncertainty
101.3	337.83	.01

System: methanol; phases: Liquid
Fixed: Pressure, kPa = 101.325
Property: Mass density, kg/m3 (Liquid); method: Vibrating tube method
Temperature, K	Mass density, kg/m3	uncertainty
298.15	786.7	.1

System: dimethyl sulfoxide [DMSO]; phases: Liquid, Gas
Property: Boiling temperature at pressure P, K (Liquid); method: Ebulliometric method (Recirculating still)
Pressure, kPa	Boiling temperature at pressure P, K	uncertainty
101.3	462.24	.01

System: dimethyl sulfoxide [DMSO]; phases: Liquid
Fixed: Pressure, kPa = 101.325
Property: Mass density, kg/m3 (Liquid); method: Vibrating tube method
Temperature, K	Mass density, kg/m3	uncertainty
298.15	1095.5	.1

System: dimethyl sulfoxide [DMSO] + methyl acetate; phases: Liquid, Gas
Fixed: Pressure, kPa = 101.3
Property: Boiling temperature at pressure P, K (Liquid); method: Ebulliometric method (Recirculating still)
Mole fraction of methyl acetate	Boiling temperature at pressure P, K	uncertainty
.925	331.42	.01
.884	332.5	.01
.84	333.69	.01
.744	336.04	.01
.667	338.14	.01
.557	341.43	.01
.462	345.02	.01
.348	351.08	.01
.264	357.98	.01
.193	366.89	.01
.101	388.1	.01
.063	404.39	.01
.037	421.76	.01
.032	426.45	.01
.024	434.35	.01
.021	437.11	.01
.017	441.58	.01

System: dimethyl sulfoxide [DMSO] + methyl acetate; phases: Gas, Liquid
Fixed: Pressure, kPa = 101.3
Property: Mole fraction of methyl acetate (Gas); method: Chromatography
Mole fraction of methyl acetate	Mole fraction of methyl acetate	uncertainty
.925	.999	.001
.884	.999	.001
.84	.998	.001
.744	.997	.001
.667	.996	.001
.557	.994	.001
.462	.992	.001
.348	.987	.001
.264	.98	.001
.193	.969	.001
.101	.917	.001
.063	.841	.001
.037	.704	.001
.032	.66	.001
.024	.562	.001
.021	.526	.001
.017	.46	.001

System: methanol + dimethyl sulfoxide [DMSO]; phases: Liquid, Gas
Fixed: Pressure, kPa = 101.3
Property: Boiling temperature at pressure P, K (Liquid); method: Ebulliometric method (Recirculating still)
Mole fraction of methanol	Boiling temperature at pressure P, K	uncertainty
.957	338.44	.01
.895	340.94	.01
.797	344.93	.01
.732	347.91	.01
.677	351.84	.01
.595	356.4	.01
.49	364.53	.01
.394	373.35	.01
.313	382.46	.01
.249	391.57	.01
.2	400.01	.01
.164	406.23	.01
.12	416.43	.01
.083	426.81	.01
.045	440.36	.01
.027	448.43	.01
.014	454.75	.01
.004	460.44	.01

System: methanol + dimethyl sulfoxide [DMSO]; phases: Gas, Liquid
Fixed: Pressure, kPa = 101.3
Property: Mole fraction of methanol (Gas); method: Chromatography
Mole fraction of methanol	Mole fraction of methanol	uncertainty
.957	1	.001
.895	1	.001
.797	.999	.001
.732	.997	.001
.677	.996	.001
.595	.993	.001
.49	.985	.001
.394	.973	.001
.313	.952	.001
.249	.924	.001
.2	.889	.001
.164	.851	.001
.12	.778	.001
.083	.673	.001
.045	.487	.001
.027	.341	.001
.014	.206	.001
.004	.067	.001

System: methanol + dimethyl sulfoxide [DMSO] + methyl acetate; phases: Liquid, Gas
Fixed: Pressure, kPa = 101.3
Property: Mole fraction of methanol (Liquid); method: Chromatography
Property: Mole fraction of methyl acetate (Gas); method: Chromatography
Property: Mole fraction of methanol (Gas); method: Chromatography
Temperature, K	Mole fraction of methyl acetate	Mole fraction of methanol	uncertainty	Mole fraction of methyl acetate	uncertainty	Mole fraction of methanol	uncertainty
349.41	.36	.029	.001	.961	.001	.028	.001
353.03	.195	.217	.001	.727	.001	.262	.001
358.04	.141	.245	.001	.643	.001	.342	.001
357.75	.117	.3	.001	.552	.001	.434	.001
361.64	.077	.336	.001	.423	.001	.561	.001
360.4	.065	.381	.001	.362	.001	.624	.001
364.05	.05	.369	.001	.304	.001	.679	.001
368.45	.02	.398	.001	.139	.001	.839	.001
350.6	.332	.048	.001	.94	.001	.048	.001
350.14	.315	.071	.001	.919	.001	.07	.001
350.95	.292	.097	.001	.889	.001	.1	.001
352.35	.268	.109	.001	.873	.001	.115	.001
351.46	.264	.133	.001	.847	.001	.142	.001
351.93	.243	.148	.001	.824	.001	.164	.001
351.68	.239	.167	.001	.804	.001	.185	.001
351.27	.227	.193	.001	.776	.001	.214	.001
