Measured thermophysical data. Vaporization enthalpies of a series of the fluoro- and chloro-substituted methylbenzenes
Source: Fluid Phase Equilib., 2014, 10.1016/j.fluid.2014.07.029
Compound 1: fluorobenzene, C6H5F, purity 99%
Compound 2: chlorobenzene, C6H5Cl, purity 99.8%
Compound 3: 2-chlorotoluene, C7H7Cl, purity 99%
Compound 4: 3-chlorotoluene, C7H7Cl, purity 99%
Compound 5: 4-chlorotoluene, C7H7Cl, purity 99%
Compound 6: 2-chloro-1,3-dimethylbenzene, C8H9Cl, purity 98%
Compound 7: 1,3-dichloro-2-methylbenzene, C7H6Cl2, purity 99%

System: fluorobenzene; phases: Liquid, Gas
Property: Vapor or sublimation pressure, kPa (Liquid); method: Transpiration method
Temperature, K	Vapor or sublimation pressure, kPa	uncertainty
274.2	2.9829	.089487
278.2	3.6448	.109344
283.2	4.8363	.145089
288.2	6.2595	.187785
293.2	8.0247	.240741
298.2	10.2864	.308592
303.2	12.7687	.383061

System: fluorobenzene; phases: Liquid, Gas
Property: Molar enthalpy of vaporization or sublimation, kJ/mol (Liquid); method: Derived by Second law
Temperature, K	Molar enthalpy of vaporization or sublimation, kJ/mol	uncertainty
274.2	35.68	
278.2	35.49	
283.2	35.25	
288.2	35	
293.2	34.76	
298.2	34.52	
303.2	34.27	

System: chlorobenzene; phases: Liquid, Gas
Property: Vapor or sublimation pressure, kPa (Liquid); method: Transpiration method
Temperature, K	Vapor or sublimation pressure, kPa	uncertainty
274.5	.3679	.011037
277.3	.4442	.013326
280.3	.5322	.015966
283.3	.6502	.019506
286.3	.793	.02379
289.3	.9497	.028491
292.2	1.1207	.033621
295.2	1.3024	.039072
298.2	1.5359	.046077
301.2	1.8718	.056154
304.2	2.1694	.065082
307.2	2.611	.07833

System: chlorobenzene; phases: Liquid, Gas
Property: Molar enthalpy of vaporization or sublimation, kJ/mol (Liquid); method: Derived by Second law
Temperature, K	Molar enthalpy of vaporization or sublimation, kJ/mol	uncertainty
274.5	42.42	
277.3	42.28	
280.3	42.13	
283.3	41.97	
286.3	41.82	
289.3	41.67	
292.2	41.52	
295.2	41.37	
298.2	41.22	
301.2	41.07	
304.2	40.92	
307.2	40.76	

System: 2-chlorotoluene; phases: Liquid, Gas
Property: Vapor or sublimation pressure, kPa (Liquid); method: Transpiration method
Temperature, K	Vapor or sublimation pressure, kPa	uncertainty
274.2	.08642	.0025926
277.1	.1072	.003216
280.3	.1342	.004026
283.2	.1592	.004776
286.1	.2058	.006174
288.2	.2283	.006849
291.2	.2944	.008832
294.1	.3532	.010596
297.2	.4295	.012885
297.2	.424	.01272
297.2	.4273	.012819
300.2	.4957	.014871
303.2	.6165	.018495
306.2	.7349	.022047

System: 2-chlorotoluene; phases: Liquid, Gas
Property: Molar enthalpy of vaporization or sublimation, kJ/mol (Liquid); method: Derived by Second law
Temperature, K	Molar enthalpy of vaporization or sublimation, kJ/mol	uncertainty
274.2	47.81	
277.1	47.64	
280.3	47.46	
283.2	47.3	
286.1	47.13	
288.2	47.01	
291.2	46.84	
294.1	46.68	
297.2	46.5	
297.2	46.5	
297.2	46.5	
300.2	46.33	
303.2	46.16	
306.2	45.99	

System: 3-chlorotoluene; phases: Liquid, Gas
Property: Vapor or sublimation pressure, kPa (Liquid); method: Transpiration method
Temperature, K	Vapor or sublimation pressure, kPa	uncertainty
274.2	.07975	.0023925
277.2	.09896	.0029688
280.2	.119	.00357
283.1	.144	.00432
286.2	.1833	.005499
288.2	.2143	.006429
291.2	.2602	.007806
294.2	.3081	.009243
294.2	.3068	.009204
297.2	.3753	.011259
300.2	.4798	.014394
303.2	.5803	.017409
306.3	.6856	.020568
309.2	.8193	.024579

System: 3-chlorotoluene; phases: Liquid, Gas
Property: Molar enthalpy of vaporization or sublimation, kJ/mol (Liquid); method: Derived by Second law
Temperature, K	Molar enthalpy of vaporization or sublimation, kJ/mol	uncertainty
274.2	48.26	
277.2	48.1	
280.2	47.93	
283.1	47.77	
286.2	47.6	
288.2	47.49	
291.2	47.33	
294.2	47.16	
294.2	47.16	
297.2	46.99	
300.2	46.83	
303.2	46.66	
306.3	46.49	
309.2	46.33	

System: 4-chlorotoluene; phases: Liquid, Gas
Property: Vapor or sublimation pressure, kPa (Liquid); method: Transpiration method
Temperature, K	Vapor or sublimation pressure, kPa	uncertainty
274.3	.08443	.0025329
274.3	.08054	.0024162
276.1	.09219	.0027657
278.2	.1054	.003162
280.2	.1218	.003654
282.1	.1417	.004251
285.2	.1738	.005214
288.2	.2197	.006591
288.2	.2194	.006582
288.2	.2129	.006387
291.3	.2653	.007959
294.2	.3302	.009906
297.2	.4026	.012078
300.3	.4688	.014064
303.2	.5716	.017148
306.3	.6967	.020901
309.2	.8307	.024921

System: 4-chlorotoluene; phases: Liquid, Gas
Property: Molar enthalpy of vaporization or sublimation, kJ/mol (Liquid); method: Derived by Second law
Temperature, K	Molar enthalpy of vaporization or sublimation, kJ/mol	uncertainty
274.3	47.85	
274.3	47.85	
276.1	47.74	
278.2	47.63	
280.2	47.51	
282.1	47.4	
285.2	47.23	
288.2	47.06	
288.2	47.06	
288.2	47.06	
291.3	46.88	
294.2	46.72	
297.2	46.55	
300.3	46.38	
303.2	46.21	
306.3	46.04	
309.2	45.87	

System: 2-chloro-1,3-dimethylbenzene; phases: Liquid, Gas
Property: Vapor or sublimation pressure, kPa (Liquid); method: Transpiration method
Temperature, K	Vapor or sublimation pressure, kPa	uncertainty
274.5	.02246	.0006738
276.2	.02501	.0007503
279.2	.03259	.0009777
282.2	.04207	.0012621
284.1	.04751	.0014253
287.1	.05944	.0017832
287.2	.0579	.001737
290.1	.07158	.0021474
293.3	.09385	.0028155
296.3	.1132	.003396
298.2	.1275	.003825
298.3	.1316	.003948
298.3	.1301	.003903
300.4	.1514	.004542
305.4	.2079	.006237

System: 2-chloro-1,3-dimethylbenzene; phases: Liquid, Gas
Property: Molar enthalpy of vaporization or sublimation, kJ/mol (Liquid); method: Derived by Second law
Temperature, K	Molar enthalpy of vaporization or sublimation, kJ/mol	uncertainty
274.5	51.34	
276.2	51.23	
279.2	51.03	
282.2	50.83	
284.1	50.71	
287.1	50.51	
287.2	50.5	
290.1	50.31	
293.3	50.1	
296.3	49.9	
298.2	49.78	
298.3	49.77	
298.3	49.77	
300.4	49.64	
305.4	49.31	

System: 1,3-dichloro-2-methylbenzene; phases: Liquid, Gas
Property: Vapor or sublimation pressure, kPa (Liquid); method: Transpiration method
Temperature, K	Vapor or sublimation pressure, kPa	uncertainty
274.2	.03403	.0010209
276.2	.04083	.0012249
278.2	.04745	.0014235
280.2	.05798	.0017394
282.2	.06664	.0019992
284.2	.07824	.0023472
288.2	.1056	.003168
291.2	.1324	.003972
293.2	.1488	.004464
296.2	.1881	.005643
298.2	.2237	.006711
301.3	.2715	.008145
305.3	.3539	.010617

System: 1,3-dichloro-2-methylbenzene; phases: Liquid, Gas
Property: Molar enthalpy of vaporization or sublimation, kJ/mol (Liquid); method: Derived by Second law
Temperature, K	Molar enthalpy of vaporization or sublimation, kJ/mol	uncertainty
274.2	53.15	
276.2	53.02	
278.2	52.89	
280.2	52.76	
282.2	52.63	
284.2	52.5	
288.2	52.25	
291.2	52.05	
293.2	51.92	
296.2	51.73	
298.2	51.6	
301.3	51.4	
305.3	51.14	
