Measured thermophysical data. Measurement and correlation solubility and mixing properties of L-malic acid in pure and  mixture organic solvents
Source: Fluid Phase Equilib., 2013, 10.1016/j.fluid.2013.10.011
Compound 1: l-malic acid, C4H6O5, purity 99%
Compound 2: ethanol, C2H6O, purity 99.9%
Compound 3: 1-propanol, C3H8O, purity 99.93%
Compound 4: ethyl acetate, C4H8O2, purity 99.93%
Compound 5: acetonitrile, C2H3N, purity 99.98%
Compound 6: isopropanol, C3H8O, purity 99.91%
Compound 7: acetone, C3H6O, purity 99.95%
Compound 8: 1-butanol, C4H10O, purity 99.96%

System: l-malic acid; phases: Crystal, Liquid, Air at 1 atmosphere
Property: Normal melting temperature, K (Crystal); method: Visual observation
Normal melting temperature, K	uncertainty
372.65	

System: isopropanol + l-malic acid; phases: Liquid, Crystal
Fixed: Pressure, kPa = 101
Property: Mole fraction of l-malic acid (Liquid); method: Titration method
Temperature, K	Mole fraction of l-malic acid	uncertainty
278.15	.1173	.0002
283.15	.1355	.0002
288.15	.1569	.0002
293.15	.1785	.0002
298.15	.2032	.0002
303.15	.228	.0002
308.15	.256	.0002
313.15	.2847	.0002
318.15	.3143	.0002
323.15	.3454	.0002

System: ethanol + l-malic acid; phases: Liquid, Crystal
Fixed: Pressure, kPa = 101
Property: Mole fraction of l-malic acid (Liquid); method: Titration method
Temperature, K	Mole fraction of l-malic acid	uncertainty
278.15	.1104	.0002
283.15	.1256	.0002
288.15	.1447	.0002
293.15	.1661	.0002
298.15	.1872	.0002
303.15	.2068	.0002
308.15	.2316	.0002
313.15	.2562	.0002
318.15	.2829	.0002
323.15	.3135	.0002

System: 1-propanol + l-malic acid; phases: Liquid, Crystal
Fixed: Pressure, kPa = 101
Property: Mole fraction of l-malic acid (Liquid); method: Titration method
Temperature, K	Mole fraction of l-malic acid	uncertainty
278.15	.0917	.0002
283.15	.103	.0002
288.15	.1183	.0002
293.15	.1343	.0002
298.15	.1527	.0002
303.15	.1722	.0002
308.15	.1928	.0002
313.15	.2148	.0002
318.15	.2378	.0002
323.15	.2638	.0002

System: 1-butanol + l-malic acid; phases: Liquid, Crystal
Fixed: Pressure, kPa = 101
Property: Mole fraction of l-malic acid (Liquid); method: Titration method
Temperature, K	Mole fraction of l-malic acid	uncertainty
278.15	.0832	.0002
283.15	.0948	.0002
288.15	.1094	.0002
293.15	.1237	.0002
298.15	.1397	.0002
303.15	.1587	.0002
308.15	.1796	.0002
313.15	.2015	.0002
318.15	.2254	.0002
323.15	.2498	.0002

System: acetone + l-malic acid; phases: Liquid, Crystal
Fixed: Pressure, kPa = 101
Property: Mole fraction of l-malic acid (Liquid); method: Titration method
Temperature, K	Mole fraction of l-malic acid	uncertainty
278.15	.1363	.0002
283.15	.1446	.0002
288.15	.1529	.0002
293.15	.1629	.0002
298.15	.1703	.0002
303.15	.1802	.0002
308.15	.1894	.0002
313.15	.2014	.0002
318.15	.2114	.0002
323.15	.225	.0002

System: l-malic acid + ethyl acetate; phases: Liquid, Crystal
Fixed: Pressure, kPa = 101
Property: Mole fraction of l-malic acid (Liquid); method: Titration method
Temperature, K	Mole fraction of l-malic acid	uncertainty
278.15	.0017	.0002
283.15	.0029	.0002
288.15	.005	.0002
293.15	.0083	.0002
298.15	.0134	.0002
303.15	.0213	.0002
308.15	.0333	.0002
313.15	.0516	.0002
318.15	.0763	.0002
323.15	.113	.0002

System: acetonitrile + l-malic acid; phases: Liquid, Crystal
Fixed: Pressure, kPa = 101
Property: Mole fraction of l-malic acid (Liquid); method: Titration method
Temperature, K	Mole fraction of l-malic acid	uncertainty
278.15	.045	.0002
283.15	.0485	.0002
288.15	.0523	.0002
293.15	.0559	.0002
298.15	.0608	.0002
303.15	.0646	.0002
308.15	.0684	.0002
313.15	.0733	.0002
318.15	.0783	.0002
323.15	.0838	.0002

System: isopropanol + l-malic acid + ethyl acetate; phases: Liquid, Crystal
Fixed: Pressure, kPa = 101
Property: Mole fraction of l-malic acid (Liquid); method: Titration method
Solvent: Mole fraction of isopropanol	Temperature, K	Mole fraction of l-malic acid	uncertainty
.1243	278.15	.00679	.00002
.1243	283.15	.01148	.00002
.1243	288.15	.01358	.00002
.1243	293.15	.02009	.00002
.1243	298.15	.02702	.00002
.1243	303.15	.035	.00002
.1243	308.15	.04832	.00002
.1243	313.15	.06451	.00002
.1243	318.15	.08343	.00002
.1243	323.15	.11352	.00002
.3538	278.15	.02063	.00002
.3538	283.15	.02742	.00002
.3538	288.15	.03343	.00002
.3538	293.15	.04361	.00002
.3538	298.15	.05667	.00002
.3538	303.15	.06738	.00002
.3538	308.15	.08697	.00002
.3538	313.15	.10734	.00002
.3538	318.15	.13319	.00002
.3538	323.15	.1661	.00002
.5609	278.15	.03317	.00002
.5609	283.15	.03891	.00002
.5609	288.15	.04858	.00002
.5609	293.15	.05981	.00002
.5609	298.15	.07548	.00002
.5609	303.15	.09141	.00002
.5609	308.15	.11073	.00002
.5609	313.15	.13607	.00002
.5609	318.15	.16505	.00002
.5609	323.15	.20214	.00002
.7488	278.15	.05406	.00002
.7488	283.15	.06503	.00002
.7488	288.15	.07809	.00002
.7488	293.15	.09297	.00002
.7488	298.15	.11204	.00002
.7488	303.15	.1311	.00002
.7488	308.15	.16061	.00002
.7488	313.15	.19326	.00002
.7488	318.15	.22721	.00002
.7488	323.15	.26743	.00002
.6571	278.15	.04257	.00002
.6571	283.15	.05093	.00002
.6571	288.15	.06242	.00002
.6571	293.15	.07626	.00002
.6571	298.15	.09167	.00002
.6571	303.15	.11126	.00002
.6571	308.15	.13711	.00002
.6571	313.15	.16871	.00002
.6571	318.15	.20031	.00002
.6571	323.15	.23896	.00002
.92	278.15	.07104	.00002
.92	283.15	.08514	.00002
.92	288.15	.10055	.00002
.92	293.15	.11961	.00002
.92	298.15	.14129	.00002
.92	303.15	.16845	.00002
.92	308.15	.1977	.00002
.92	313.15	.23348	.00002
.92	318.15	.27239	.00002
.92	323.15	.31261	.00002
