Measured thermophysical data. Isobaric VLE data for the system of butan-1-ol + butylethanoate + 1-butyl-3-methylimidazoliumbis[(trifluoromethyl)sulfonyl]imide
Source: Fluid Phase Equilib., 2013, 10.1016/j.fluid.2013.05.020
Compound 1: 1-butyl-3-methylimidazolium bis(trifluoromethylsulfonyl)imide, C10H15F6N3O4S2, purity 99%
Compound 2: n-butyl acetate, C6H12O2, purity 99.7%
Compound 3: n-butanol, C4H10O, purity 99.7%

System: n-butyl acetate; phases: Liquid, Gas
Property: Vapor or sublimation pressure, kPa (Liquid); method: Ebulliometric method (Recirculating still)
Temperature, K	Vapor or sublimation pressure, kPa	uncertainty
399.15	101.3	.05

System: n-butanol; phases: Liquid, Gas
Property: Vapor or sublimation pressure, kPa (Liquid); method: Ebulliometric method (Recirculating still)
Temperature, K	Vapor or sublimation pressure, kPa	uncertainty
390.65	101.3	.05

System: n-butanol + n-butyl acetate + 1-butyl-3-methylimidazolium bis(trifluoromethylsulfonyl)imide; phases: Liquid, Gas
Property: Mole fraction of 1-butyl-3-methylimidazolium bis(trifluoromethylsulfonyl)imide (Liquid); method: Chromatography
Property: Mole fraction of n-butanol (Gas); method: Chromatography
Property: Mole fraction of 1-butyl-3-methylimidazolium bis(trifluoromethylsulfonyl)imide (Gas); method: Chromatography
Temperature, K	Pressure, kPa	Mole fraction of n-butanol	Mole fraction of 1-butyl-3-methylimidazolium bis(trifluoromethylsulfonyl)imide	uncertainty	Mole fraction of n-butanol	uncertainty	Mole fraction of 1-butyl-3-methylimidazolium bis(trifluoromethylsulfonyl)imide	uncertainty
399.51	101.3	.082	.102	.008	.163	.006	0	.008
392.55	101.3	.89	.1	.008	.988	.006	0	.008
402.78	101.3	.076	.2	.008	.173	.006	0	.008
400.01	101.3	.172	.198	.008	.331	.006	0	.008
398.28	101.3	.249	.203	.008	.448	.006	0	.008
397.33	101.3	.323	.202	.008	.531	.006	0	.008
396.39	101.3	.407	.199	.008	.628	.006	0	.008
396.01	101.3	.468	.202	.008	.681	.006	0	.008
395.76	101.3	.571	.202	.008	.778	.006	0	.008
395.8	101.3	.636	.201	.008	.834	.006	0	.008
395.89	101.3	.727	.198	.008	.916	.006	0	.008
397.1	101.3	.165	.101	.008	.283	.006	0	.008
396.25	101.3	.791	.2	.008	.99	.006	0	.008
406.02	101.3	.08	.3	.008	.215	.006	0	.008
403.8	101.3	.136	.302	.008	.329	.006	0	.008
401.87	101.3	.214	.297	.008	.476	.006	0	.008
400.61	101.3	.274	.301	.008	.551	.006	0	.008
399.97	101.3	.361	.297	.008	.658	.006	0	.008
399.21	101.3	.44	.299	.008	.752	.006	0	.008
398.63	101.3	.493	.301	.008	.795	.006	0	.008
398.69	101.3	.573	.298	.008	.873	.006	0	.008
398.97	101.3	.632	.301	.008	.928	.006	0	.008
395.61	101.3	.245	.099	.008	.378	.006	0	.008
399.55	101.3	.693	.3	.008	.991	.006	0	.008
394.52	101.3	.337	.098	.008	.471	.006	0	.008
393.63	101.3	.423	.102	.008	.561	.006	0	.008
393.28	101.3	.53	.103	.008	.662	.006	0	.008
392.99	101.3	.632	.098	.008	.745	.006	0	.008
392.97	101.3	.734	.1	.008	.826	.006	0	.008
393.19	101.3	.809	.098	.008	.895	.006	0	.008

System: n-butanol + 1-butyl-3-methylimidazolium bis(trifluoromethylsulfonyl)imide; phases: Liquid, Gas
Fixed: Pressure, kPa = 101.3
Property: Mole fraction of 1-butyl-3-methylimidazolium bis(trifluoromethylsulfonyl)imide (Liquid); method: Chromatography
Temperature, K	Mole fraction of 1-butyl-3-methylimidazolium bis(trifluoromethylsulfonyl)imide	uncertainty
390.65	0	.008
393.75	.1	.008
395.95	.2	.008
398.95	.3	.008
402.15	.4	.008

System: n-butyl acetate + 1-butyl-3-methylimidazolium bis(trifluoromethylsulfonyl)imide; phases: Liquid, Gas
Fixed: Pressure, kPa = 101.3
Property: Mole fraction of 1-butyl-3-methylimidazolium bis(trifluoromethylsulfonyl)imide (Liquid); method: Chromatography
Temperature, K	Mole fraction of 1-butyl-3-methylimidazolium bis(trifluoromethylsulfonyl)imide	uncertainty
399.15	0	.008
403.05	.1	.008
405.35	.2	.008
409.85	.3	.008
415.65	.4	.008

System: n-butanol + n-butyl acetate; phases: Liquid, Gas
Property: Boiling temperature at pressure P, K (Liquid); method: Ebulliometric method (Recirculating still)
Pressure, kPa	Mole fraction of n-butanol	Boiling temperature at pressure P, K	uncertainty
101.3	.102	399.51	.02
101.3	.101	397.1	.02
101.3	.099	395.61	.02
101.3	.098	394.52	.02
101.3	.102	393.63	.02
101.3	.103	393.28	.02
101.3	.098	392.99	.02
101.3	.1	392.97	.02
101.3	.098	393.19	.02
101.3	.1	392.55	.02
101.3	.2	402.78	.02
101.3	.198	400.01	.02
101.3	.203	398.28	.02
101.3	.202	397.33	.02
101.3	.199	396.39	.02
101.3	.202	396.01	.02
101.3	.202	395.76	.02
101.3	.201	395.8	.02
101.3	.198	395.89	.02
101.3	.2	396.25	.02
101.3	.3	406.02	.02
101.3	.302	403.8	.02
101.3	.297	401.87	.02
101.3	.301	400.61	.02
101.3	.297	399.97	.02
101.3	.299	399.21	.02
101.3	.301	398.63	.02
101.3	.298	398.69	.02
101.3	.301	398.97	.02
101.3	.3	399.55	.02
