Measured thermophysical data. Activity coefficients of NaCl in aqueous mixtures with epsilon-increasing co-solvent: N-methylformamide water mixtures at 298.15 K
Source: Fluid Phase Equilib., 2011, 10.1016/j.fluid.2011.08.018
Compound 1: sodium chloride, ClNa, purity 99%
Compound 2: N-methylmethanamide, C2H5NO, purity 99.5%
Compound 3: water, H2O, purity 99.9%

System: N-methylmethanamide + sodium chloride + water; phases: Liquid
Fixed: Temperature, K = 298.15
Fixed: Pressure, kPa = 101
Property: Activity coefficient of sodium chloride (Liquid); method: EMF measurements
Solvent: Mass fraction of N-methylmethanamide	Molality, mol/kg of sodium chloride	Activity coefficient of sodium chloride	uncertainty
0	.1857	.733	.005
0	.3711	.689	.005
0	.6871	.659	.005
0	1.139	.651	.005
0	1.7705	.657	.005
0	2.3945	.68	.005
0	3.5872	.75	.005
0	4.6544	.83	.005
0	5.6926	.929	.005
0	6.0855	.976	.005
.1	.0851	.779	.005
.1	.2161	.697	.005
.1	.3955	.664	.005
.1	.6328	.648	.005
.1	.8478	.648	.005
.1	1.307	.654	.005
.1	1.7691	.671	.005
.1	2.3475	.704	.005
.1	2.8432	.74	.005
.1	3.2829	.777	.005
.1	3.736	.814	.005
.1	4.2773	.858	.005
.1	5.3544	.942	.005
.2	.05	.823	.005
.2	.1514	.733	.005
.2	.4274	.679	.005
.2	.6631	.67	.005
.2	1.1514	.672	.005
.2	1.6784	.693	.005
.2	2.0111	.715	.005
.2	3.0872	.797	.005
.2	4.0021	.86	.005
.2	4.2669	.872	.005
.2	4.4204	.885	.005
.3	.0402	.847	.005
.3	.1463	.759	.005
.3	.2794	.728	.005
.3	.4303	.715	.005
.3	.6759	.707	.005
.3	1.0459	.716	.005
.3	1.4139	.733	.005
.3	1.842	.763	.005
.3	2.2957	.803	.005
.3	2.9678	.856	.005
.3	3.2434	.872	.005
.3	3.6739	.9	.005
.4	.0457	.852	.005
.4	.1269	.797	.005
.4	.2078	.779	.005
.4	.2984	.767	.005
.4	.4484	.76	.005
.4	.7108	.761	.005
.4	1.0567	.774	.005
.4	1.2301	.787	.005
.4	1.4596	.805	.005
.4	2.1025	.86	.005
.4	2.4386	.89	.005
.4	2.851	.903	.005
.4	2.9312	.908	.005
.4	2.992	.914	.005
.5	.0475	.863	.005
.5	.1355	.817	.005
.5	.2724	.799	.005
.5	.4157	.795	.005
.5	.6342	.799	.005
.5	1.2439	.839	.005
.5	1.7924	.892	.005
.5	1.9279	.903	.005
.5	2.0823	.911	.005
.5	2.3507	.912	.005
.5	2.3684	.92	.005
.6	.0976	.841	.005
.6	.1703	.826	.005
.6	.2943	.818	.005
.6	.4199	.82	.005
.6	.5249	.824	.005
.6	.6583	.832	.005
.6	.8562	.849	.005
.6	1.0853	.873	.005
.6	1.2289	.892	.005
.6	1.4739	.905	.005
.6	1.748	.908	.005
.6	1.831	.917	.005
.7	.0553	.898	.005
.7	.1226	.88	.005
.7	.165	.876	.005
.7	.2277	.876	.005
.7	.3176	.879	.005
.7	.5	.896	.005
.7	.7285	.918	.005
.7	.9845	.949	.005
.7	1.1998	.964	.005
.7	1.339	.975	.005
.8	.0424	.915	.005
.8	.1102	.901	.005
.8	.1345	.901	.005
.8	.159	.904	.005
.8	.2075	.907	.005
.8	.2578	.913	.005
.8	.35	.928	.005
.8	.4204	.937	.005
.8	.5755	.965	.005
.8	.7126	.974	.005
.8	.8716	.979	.005
.8	1.0113	.972	.005
.9	.045	.942	.005
.9	.0511	.941	.005
.9	.0635	.941	.005
.9	.1063	.945	.005
.9	.1266	.951	.005
.9	.1577	.956	.005
.9	.23	.974	.005
.9	.2424	.974	.005
.9	.406	1.006	.005
.9	.6161	.99	.005
1	.0396	.986	.005
1	.052	.985	.005
1	.0642	.983	.005
1	.102	.984	.005
1	.1375	.984	.005
1	.1655	.978	.005
1	.1934	.971	.005
0	.0496	.819	.005
0	.1979	.733	.005
0	.3096	.707	.005
0	.4571	.686	.005
0	.5916	.675	.005
0	.8318	.663	.005
0	1.2118	.659	.005
0	1.8703	.67	.005
0	2.6244	.702	.005
0	3.811	.78	.005
0	5.1419	.891	.005
0	5.4427	.921	.005
0	5.8911	.97	.005
0	6.0316	.985	.005
0	6.1	.997	.005
