Measured thermophysical data. Solubilities of cobalt(III) and chromium(III) acetylacetonates in supercritical carbon dioxide at elevated temperatures
Source: Fluid Phase Equilib., 2013, 10.1016/j.fluid.2013.02.004
Compound 1: cobalt, tris(2,4-pentanedionato-O,O')-, (oc-6-11)-, C15H21CoO6, purity 97%
Compound 2: chromium acetylacetonate, C15H21CrO6, purity 97%
Compound 3: carbon dioxide, CO2
Compound 4: benzene, C6H6
Compound 5: toluene, C7H8
Compound 6: p-xylene, C8H10

System: carbon dioxide + cobalt, tris(2,4-pentanedionato-O,O')-, (oc-6-11)-; phases: Fluid (supercritical or subcritical phases), Crystal
Property: Mole fraction of cobalt, tris(2,4-pentanedionato-O,O')-, (oc-6-11)- (Fluid (supercritical or subcritical phases)); method: Density calibration data
Temperature, K	Pressure, kPa	Mole fraction of cobalt, tris(2,4-pentanedionato-O,O')-, (oc-6-11)-	uncertainty
333	16000	.0000266	.0000017
333	19300	.0000434	.0000004
333	23100	.0000573	.0000009
333	25400	.000068	.0000017
343	17400	.0000324	.000001
343	21100	.0000555	.0000011
343	23300	.0000697	.0000019
343	25300	.0000796	.0000012
373	17900	.000026	.0000011
373	19200	.0000354	.000003
373	20000	.0000469	.0000072
373	21200	.0000567	.0000016
373	22000	.0000685	.0000009
373	23100	.0000856	.0000035
373	24100	.000101	.000005
373	25000	.000111	.000008
373	26300	.000129	.000001
373	27500	.000144	.000004
393	18000	.0000385	.0000039
393	19000	.0000479	.000009
393	20100	.0000588	.0000028
393	21000	.0000722	.0000038
393	22000	.0000889	.0000031
393	23000	.000104	.000003
393	24000	.000123	.000003
393	25000	.00014	.000004
413	19000	.0000711	.0000048
413	20000	.0000881	.0000042
413	21000	.000111	.000006
413	22000	.000135	.000009
413	23000	.000152	.000006
413	24000	.000188	.000003
413	25000	.000207	.000007

System: carbon dioxide + chromium acetylacetonate; phases: Fluid (supercritical or subcritical phases), Crystal
Property: Mole fraction of chromium acetylacetonate (Fluid (supercritical or subcritical phases)); method: Density calibration data
Temperature, K	Pressure, kPa	Mole fraction of chromium acetylacetonate	uncertainty
373	16000	.0000416	.0000053
373	17000	.0000575	.0000071
373	18000	.0000739	.0000014
373	19000	.000102	.000006
373	20000	.000128	.000005
373	21000	.00018	.000009
373	22100	.000217	.000015
373	22900	.000247	.000012
373	24100	.000325	.000018
373	25000	.000384	.000006
393	16000	.0000511	.0000065
393	17100	.0000663	.0000068
393	18000	.0000878	.0000061
393	19000	.000119	.000008
393	20000	.00015	.000006
393	21000	.000193	.000009
393	22100	.000236	.000001
393	22900	.000278	.000002
413	16100	.0000942	.0000052
413	17100	.000122	.000009
413	18100	.000148	.000007
413	19100	.000179	.000006
413	20100	.000218	.000009
413	21000	.000261	.000015
413	22100	.000314	.000015
413	23000	.000367	.000014
413	24000	.000427	.000031
413	25000	.000482	.00003
433	16100	.000178	.00001
433	17100	.000211	.000005
433	18200	.000256	.000005
433	19100	.000295	.000013
433	20100	.000348	.000014
433	21100	.000419	.000004
433	22000	.000486	.000001
433	23100	.000554	.000001
433	24000	.000628	.000021
433	25000	.000705	.000046
