Measured thermophysical data. Vapor pressures and thermophysical properties of selected hexenols and recommended vapor pressure for hexan-1-ol
Source: Fluid Phase Equilib., 2015, 10.1016/j.fluid.2015.05.026
Compound 1: 1-hexen-3-ol, C6H12O, purity 99.4%
Compound 2: cis-3-hexen-1-ol, C6H12O, purity 99%
Compound 3: trans-2-hexen-1-ol, C6H12O, purity 96.2%
Compound 4: 1-hexanol, C6H14O, purity 99.9%

System: 1-hexen-3-ol; phases: Liquid, Gas
Property: Vapor or sublimation pressure, kPa (Liquid); method: Closed cell (Static) method
Temperature, K	Vapor or sublimation pressure, kPa	uncertainty
238.2	.001239	.000056
238.2	.001245	.000056
238.2	.001252	.000056
243.15	.002307	.000062
243.15	.002309	.000062
243.15	.00231	.000062
248.15	.004181	.000071
248.2	.004188	.000071
248.2	.004193	.000071
253.15	.007373	.000087
253.15	.007373	.000087
253.15	.007376	.000087
258.15	.01269	.000113
258.15	.0127	.000114
258.15	.01271	.000114
263.15	.0214	.000157
263.15	.02141	.000157
263.15	.02141	.000157
268.15	.03517	.000226
268.15	.03518	.000226
268.15	.03518	.000226
273.15	.05668	.000333
273.15	.05669	.000333
273.15	.05671	.000334
278.15	.08933	.000497
278.15	.08939	.000497
278.15	.08939	.000497
283.15	.13826	.000741
283.15	.13833	.000742
283.15	.13836	.000742
288.15	.20974	.001099
288.15	.20977	.001099
288.15	.20983	.001099
293.15	.31223	.001611
293.15	.31227	.001611
293.15	.31232	.001612
298.15	.45738	.002337
298.15	.45738	.002337
298.15	.45761	.002338
303.15	.65871	.003344
303.15	.65885	.003344
303.15	.65892	.003345
308.15	.93526	.004726
308.15	.93548	.004727
308.15	.93553	.004728

System: 1-hexen-3-ol; phases: Liquid
Fixed: Pressure, kPa = 101.325
Property: Molar heat capacity at constant pressure, J/K/mol (Liquid); method: Large sample (1 g) scanning calorimetry
Temperature, K	Molar heat capacity at constant pressure, J/K/mol	uncertainty
265	235.9	2.359
270	241	2.41
275	246	2.46
280	250.8	2.508
285	255.5	2.555
290	260.1	2.601
295	264.8	2.648
300	269.3	2.693
305	273.6	2.736
310	277.6	2.776
315	281.6	2.816
320	285.4	2.854
325	289.1	2.891
330	292.5	2.925
335	295.4	2.954
340	298.2	2.982
345	301.2	3.012
350	303.8	3.038
354.7	305.5	3.055

System: cis-3-hexen-1-ol; phases: Liquid, Gas
Property: Vapor or sublimation pressure, kPa (Liquid); method: Closed cell (Static) method
Temperature, K	Vapor or sublimation pressure, kPa	uncertainty
238.15	.000301	.000052
238.15	.000303	.000052
238.15	.000304	.000052
243.15	.000577	.000053
243.15	.000579	.000053
243.15	.00058	.000053
248.15	.001062	.000055
248.15	.001066	.000055
248.15	.001069	.000055
253.15	.001921	.00006
253.15	.001923	.00006
253.15	.001926	.00006
258.15	.003383	.000067
258.15	.003393	.000067
258.15	.003395	.000067
263.15	.005802	.000079
263.15	.005803	.000079
263.15	.005805	.000079
268.15	.009727	.000099
268.15	.009728	.000099
268.15	.009737	.000099
273.65	.01674	.000134
273.65	.01674	.000134
273.65	.01674	.000134
278.15	.02561	.000178
278.15	.02562	.000178
278.15	.02563	.000178
283.15	.04036	.000252
283.15	.04037	.000252
283.15	.04037	.000252
288.15	.06241	.000362
288.15	.06244	.000362
288.15	.06244	.000362
293.15	.09491	.000525
293.15	.09494	.000525
293.15	.09496	.000525
298.15	.14199	.00076
298.15	.14202	.00076
298.15	.14202	.00076
303.15	.20893	.001095
303.15	.20898	.001095
303.15	.20901	.001095
308.15	.30319	.001566
308.15	.30335	.001567
308.15	.30337	.001567

System: cis-3-hexen-1-ol; phases: Liquid
Fixed: Pressure, kPa = 101.325
Property: Molar heat capacity at constant pressure, J/K/mol (Liquid); method: Large sample (1 g) scanning calorimetry
Temperature, K	Molar heat capacity at constant pressure, J/K/mol	uncertainty
265	206.7	2.067
270	210.2	2.102
275	213.9	2.139
280	217.6	2.176
285	221.4	2.214
290	225.4	2.254
295	229.7	2.297
300	234	2.34
305	238.2	2.382
310	242.4	2.424
315	246.7	2.467
320	250.9	2.509
325	255.2	2.552
330	259.2	2.592
335	263.1	2.631
340	266.8	2.668
345	270.8	2.708
350	274.6	2.746
355	277.8	2.778

System: trans-2-hexen-1-ol; phases: Liquid, Gas
Property: Vapor or sublimation pressure, kPa (Liquid); method: Closed cell (Static) method
Temperature, K	Vapor or sublimation pressure, kPa	uncertainty
238.15	.000207	.000051
238.15	.00021	.000051
238.15	.000211	.000051
243.15	.000404	.000052
243.15	.000406	.000052
243.15	.000407	.000052
248.15	.000768	.000054
248.15	.000772	.000054
248.15	.000772	.000054
253.15	.001397	.000057
253.15	.001399	.000057
253.15	.001399	.000057
258.15	.002485	.000062
258.15	.002492	.000062
258.15	.002493	.000062
263.15	.004314	.000072
263.15	.004317	.000072
263.15	.004318	.000072
268.15	.007304	.000087
268.15	.00731	.000087
268.15	.007315	.000087
273.15	.01214	.000111
273.15	.01214	.000111
273.15	.01214	.000111
273.65	.01275	.000114
273.65	.01276	.000114
273.65	.01276	.000114
278.15	.01974	.000149
278.15	.01975	.000149
278.15	.01975	.000149
283.15	.03147	.000207
283.15	.03147	.000207
283.15	.03148	.000207
288.15	.04923	.000296
288.15	.04926	.000296
288.15	.04927	.000296
293.15	.07568	.000428
293.15	.07568	.000428
293.15	.07569	.000428
298.15	.11433	.000622
298.15	.11433	.000622
298.15	.11434	.000622
303.15	.16989	.000899
303.15	.16992	.0009
303.15	.16993	.0009
308.15	.24827	.001291
308.15	.24833	.001292
308.15	.24837	.001292

System: trans-2-hexen-1-ol; phases: Liquid
Fixed: Pressure, kPa = 101.325
Property: Molar heat capacity at constant pressure, J/K/mol (Liquid); method: Large sample (1 g) scanning calorimetry
Temperature, K	Molar heat capacity at constant pressure, J/K/mol	uncertainty
265	211.9	2.119
270	215.1	2.151
275	218.4	2.184
280	221.9	2.219
285	225.4	2.254
290	229.2	2.292
295	233.3	2.333
300	237.2	2.372
305	241.3	2.413
310	245.3	2.453
315	249.5	2.495
320	253.6	2.536
325	257.8	2.578
330	261.9	2.619
335	265.6	2.656
340	269.5	2.695
345	273.3	2.733
350	276.9	2.769
355	280.1	2.801

System: 1-hexanol; phases: Liquid, Gas
Property: Vapor or sublimation pressure, kPa (Liquid); method: Closed cell (Static) method
Temperature, K	Vapor or sublimation pressure, kPa	uncertainty
237.95	.000143	.000051
238	.000143	.000051
238	.000145	.000051
243.2	.000296	.000051
243.2	.000296	.000051
243.25	.000293	.000051
248.2	.000569	.000053
248.2	.00056	.000053
248.2	.000564	.000053
253.15	.001057	.000055
253.15	.001054	.000055
253.15	.001051	.000055
258.15	.001918	.00006
258.15	.001915	.00006
258.15	.00192	.00006
263.15	.003393	.000067
263.15	.003393	.000067
263.15	.003385	.000067
268.15	.005838	.000079
268.15	.005843	.000079
268.15	.005839	.000079
273.15	.009866	.000099
273.15	.009866	.000099
273.15	.009857	.000099
273.65	.01039	.000102
273.65	.01039	.000102
273.65	.01039	.000102
278.15	.01629	.000131
278.15	.01629	.000131
278.15	.0163	.000132
283.15	.02639	.000182
283.15	.02639	.000182
283.15	.02642	.000182
288.15	.04189	.000259
288.15	.0419	.00026
288.15	.0419	.00026
293.15	.06536	.000377
293.15	.06537	.000377
293.15	.06537	.000377
298.15	.10005	.00055
298.15	.10008	.00055
298.15	.10009	.00055
303.15	.15053	.000803
303.15	.15054	.000803
303.15	.15054	.000803
308.15	.223	.001165
308.15	.22301	.001165
308.15	.22311	.001166
