Measured thermophysical data. Measurement and correlation of solubility of water in carbon dioxide-rich phase
Source: Fluid Phase Equilib., 2012, 10.1016/j.fluid.2012.05.013
Compound 1: carbon dioxide, CO2, purity 99.999%
Compound 2: water, H2O

System: carbon dioxide + water; phases: Liquid mixture 1, Liquid
Property: Liquid-liquid equilibrium temperature, K (Liquid mixture 1); method: Visual observation
Pressure, kPa	Mole fraction of water	Liquid-liquid equilibrium temperature, K	uncertainty
8100	.00272	290.8	.1
8100	.00272	290.6	.1
8100	.00294	293.7	.1
8100	.00325	298.8	.1
8100	.00246	283.2	.1
10100	.00262	284.8	.1
10100	.00272	287.7	.1
10100	.00293	290.5	.1
10100	.00296	290	.1
10100	.00312	293.7	.1
10100	.00326	294.8	.1
10100	.00327	295.3	.1
10100	.00328	295	.1
10100	.0036	298.5	.1
10100	.00363	298.8	.1
10100	.00394	302.4	.1
10100	.00396	303.5	.1
10100	.00406	305.5	.1
10100	.00412	306.5	.1
10100	.00422	307.6	.1
10100	.00443	311.4	.1
10100	.00451	312	.1
20100	.00304	290.3	.1
20100	.00346	294.8	.1
20100	.00395	300.1	.1
