Measured thermophysical data. Measurement and correlation of phase equilibria for ternary systems of water + (ethanol / 1-propanol) + 1-decyl-3-methylimidazolium bis(trifluoromethylsulfonyl) imide at 298.15 K
Source: Fluid Phase Equilib., 2016, 10.1016/j.fluid.2016.07.024
Compound 1: ethanol, C2H6O, purity 99.5%
Compound 2: 1-propanol, C3H8O, purity 99.5%
Compound 3: 1-decyl-3-methylimidazolium bis(trifluoromethylsulfonyl)amide, C16H27F6N3O4S2, purity 99.0%
Compound 4: water, H2O

System: ethanol + water + 1-decyl-3-methylimidazolium bis(trifluoromethylsulfonyl)amide; phases: Liquid mixture 2, Liquid mixture 1
Fixed: Pressure, kPa = 101
Property: Mole fraction of water (Liquid mixture 2); method: Chromatography
Property: Mole fraction of water (Liquid mixture 1); method: Chromatography
Property: Mole fraction of ethanol (Liquid mixture 1); method: Chromatography
Temperature, K	Mole fraction of ethanol	Mole fraction of water	uncertainty	Mole fraction of water	uncertainty	Mole fraction of ethanol	uncertainty
298.15	.121	.324	.001	.944	.001	.056	.001
298.15	.168	.334	.001	.91	.001	.09	.001
298.15	.233	.349	.001	.887	.001	.113	.001
298.15	.303	.358	.001	.838	.001	.162	.001
298.15	.375	.367	.001	.78	.001	.219	.001
298.15	.41	.399	.001	.737	.001	.26	.001
298.15	.435	.43	.001	.682	.001	.311	.001
298.15	0	.243	.001	1	.001	0	.001

System: 1-propanol + water + 1-decyl-3-methylimidazolium bis(trifluoromethylsulfonyl)amide; phases: Liquid mixture 2, Liquid mixture 1
Fixed: Pressure, kPa = 101
Property: Mole fraction of 1-propanol (Liquid mixture 2); method: Chromatography
Property: Mole fraction of water (Liquid mixture 1); method: Chromatography
Property: Mole fraction of 1-propanol (Liquid mixture 1); method: Chromatography
Temperature, K	Mole fraction of water	Mole fraction of 1-propanol	uncertainty	Mole fraction of water	uncertainty	Mole fraction of 1-propanol	uncertainty
298.15	.243	0	.001	1	.001	0	.001
298.15	.194	.244	.001	.973	.001	.027	.001
298.15	.215	.358	.001	.96	.001	.04	.001
298.15	.3	.409	.001	.949	.001	.051	.001
298.15	.367	.432	.001	.936	.001	.064	.001
298.15	.459	.428	.001	.921	.001	.079	.001
298.15	.519	.41	.001	.905	.001	.094	.001
298.15	.579	.373	.001	.89	.001	.109	.001
298.15	.631	.335	.001	.875	.001	.123	.001
