Measured thermophysical data. Heat capacities of binary and ternary mixtures containing o-chlorotoluene, cyclic ether and aromatic hydrocarbons
Source: Fluid Phase Equilib., 2014, 10.1016/j.fluid.2014.06.024
Compound 1: o-chlorotoluene, C7H7Cl
Compound 2: tetrahydropyran, C5H10O
Compound 3: benzene, C6H6
Compound 4: toluene, C7H8
Compound 5: o-xylene, C8H10

System: o-chlorotoluene; phases: Liquid
Fixed: Pressure, kPa = 101.325
Property: Mass density, kg/m3 (Liquid); method: Vibrating tube method
Temperature, K	Mass density, kg/m3	uncertainty
298.15	1077.3	.5
303.15	1072.5	.5
308.15	1067.6	.5

System: o-chlorotoluene; phases: Liquid
Fixed: Pressure, kPa = 101.325
Property: Speed of sound, m/s (Liquid); method: Sing-around technique in a fixed-path interferometer
Temperature, K	Speed of sound, m/s	uncertainty
298.15	1298.7	.1
303.15	1280.7	.1
308.15	1262.7	.1

System: o-chlorotoluene; phases: Liquid
Fixed: Pressure, kPa = 101.325
Property: Molar heat capacity at constant pressure, J/K/mol (Liquid); method: Small sample (50 mg) scanning calorimetry
Temperature, K	Molar heat capacity at constant pressure, J/K/mol	uncertainty
298.15	178.21	.53463
303.15	180.01	.54003
308.15	181.71	.54513

System: tetrahydropyran; phases: Liquid
Fixed: Pressure, kPa = 101.325
Property: Mass density, kg/m3 (Liquid); method: Vibrating tube method
Temperature, K	Mass density, kg/m3	uncertainty
298.15	879.13	.5
303.15	873.99	.5
308.15	868.83	.5

System: tetrahydropyran; phases: Liquid
Fixed: Pressure, kPa = 101.325
Property: Speed of sound, m/s (Liquid); method: Sing-around technique in a fixed-path interferometer
Temperature, K	Speed of sound, m/s	uncertainty
298.15	1269.8	.1
303.15	1246.8	.1
308.15	1224.4	.1

System: tetrahydropyran; phases: Liquid
Fixed: Pressure, kPa = 101.325
Property: Molar heat capacity at constant pressure, J/K/mol (Liquid); method: Small sample (50 mg) scanning calorimetry
Temperature, K	Molar heat capacity at constant pressure, J/K/mol	uncertainty
298.15	149.62	.44886
303.15	151.22	.45366
308.15	153.08	.45924

System: benzene; phases: Liquid
Fixed: Pressure, kPa = 101.325
Property: Mass density, kg/m3 (Liquid); method: Vibrating tube method
Temperature, K	Mass density, kg/m3	uncertainty
298.15	873.54	.5
303.15	868.2	.5
308.15	862.84	.5

System: benzene; phases: Liquid
Fixed: Pressure, kPa = 101.325
Property: Speed of sound, m/s (Liquid); method: Sing-around technique in a fixed-path interferometer
Temperature, K	Speed of sound, m/s	uncertainty
298.15	1299.4	.1
303.15	1276.07	.1
308.15	1252.91	.1

System: benzene; phases: Liquid
Fixed: Pressure, kPa = 101.325
Property: Molar heat capacity at constant pressure, J/K/mol (Liquid); method: Small sample (50 mg) scanning calorimetry
Temperature, K	Molar heat capacity at constant pressure, J/K/mol	uncertainty
298.15	135.18	.40554
303.15	136.4	.4092
308.15	137.61	.41283

System: toluene; phases: Liquid
Fixed: Pressure, kPa = 101.325
Property: Mass density, kg/m3 (Liquid); method: Vibrating tube method
Temperature, K	Mass density, kg/m3	uncertainty
298.15	862.18	.5
303.15	857.51	.5
308.15	852.82	.5

System: toluene; phases: Liquid
Fixed: Pressure, kPa = 101.325
Property: Speed of sound, m/s (Liquid); method: Sing-around technique in a fixed-path interferometer
Temperature, K	Speed of sound, m/s	uncertainty
298.15	1304.6	.1
303.15	1283.2	.1
308.15	1261.8	.1

System: toluene; phases: Liquid
Fixed: Pressure, kPa = 101.325
Property: Molar heat capacity at constant pressure, J/K/mol (Liquid); method: Small sample (50 mg) scanning calorimetry
Temperature, K	Molar heat capacity at constant pressure, J/K/mol	uncertainty
298.15	157.18	.47154
303.15	158.61	.47583
308.15	160.09	.48027

System: o-xylene; phases: Liquid
Fixed: Pressure, kPa = 101.325
Property: Mass density, kg/m3 (Liquid); method: Vibrating tube method
Temperature, K	Mass density, kg/m3	uncertainty
298.15	875.91	.5
303.15	871.7	.5
308.15	867.48	.5

System: o-xylene; phases: Liquid
Fixed: Pressure, kPa = 101.325
Property: Speed of sound, m/s (Liquid); method: Sing-around technique in a fixed-path interferometer
Temperature, K	Speed of sound, m/s	uncertainty
298.15	1346.2	.1
303.15	1326.2	.1
308.15	1306.1	.1

System: o-xylene; phases: Liquid
Fixed: Pressure, kPa = 101.325
Property: Molar heat capacity at constant pressure, J/K/mol (Liquid); method: Small sample (50 mg) scanning calorimetry
Temperature, K	Molar heat capacity at constant pressure, J/K/mol	uncertainty
298.15	187.55	.56265
303.15	189.11	.56733
308.15	190.62	.57186

System: benzene + tetrahydropyran; phases: Liquid
Fixed: Pressure, kPa = 101
Property: Molar heat capacity at constant pressure, J/K/mol (Liquid); method: Small sample (50 mg) scanning calorimetry
Temperature, K	Mole fraction of tetrahydropyran	Molar heat capacity at constant pressure, J/K/mol	uncertainty
298.15	.0859	136.89	.41067
298.15	.1279	137.71	.41313
298.15	.1598	138.32	.41496
298.15	.1982	139.05	.41715
298.15	.2254	139.56	.41868
298.15	.2657	140.3	.4209
298.15	.3017	140.94	.42282
298.15	.3509	141.8	.4254
298.15	.3898	142.45	.42735
298.15	.4176	142.91	.42873
298.15	.4428	143.31	.42993
298.15	.4987	144.17	.43251
298.15	.5234	144.54	.43362
298.15	.5592	145.05	.43515
298.15	.5983	145.58	.43674
298.15	.6132	145.78	.43734
298.15	.6478	146.23	.43869
298.15	.6876	146.71	.44013
298.15	.7231	147.12	.44136
298.15	.7623	147.55	.44265
298.15	.7905	147.85	.44355
298.15	.8217	148.15	.44445
298.15	.8507	148.43	.44529
298.15	.9003	148.86	.44658
303.15	.0859	138.21	.41463
303.15	.1279	139.06	.41718
303.15	.1598	139.7	.4191
303.15	.1982	140.45	.42135
303.15	.2254	140.97	.42291
303.15	.2657	141.72	.42516
303.15	.3017	142.38	.42714
303.15	.3509	143.26	.42978
303.15	.5234	146.08	.43824
303.15	.5592	146.61	.43983
303.15	.5983	147.17	.44151
303.15	.6132	147.37	.44211
303.15	.6478	147.84	.44352
303.15	.6876	148.35	.44505
303.15	.7231	148.78	.44634
303.15	.7623	149.22	.44766
303.15	.3898	143.93	.43179
303.15	.4176	144.39	.43317
303.15	.4428	144.81	.43443
303.15	.4987	145.7	.4371
303.15	.7905	149.53	.44859
303.15	.8217	149.84	.44952
303.15	.8507	150.12	.45036
303.15	.9003	150.54	.45162
308.15	.0859	139.54	.41862
308.15	.1279	140.44	.42132
308.15	.1598	141.1	.4233
308.15	.1982	141.88	.42564
308.15	.2254	142.43	.42729
308.15	.2657	143.21	.42963
308.15	.3017	143.89	.43167
308.15	.3509	144.8	.4344
308.15	.3898	145.5	.4365
308.15	.4176	145.99	.43797
308.15	.4428	146.42	.43926
308.15	.4987	147.36	.44208
308.15	.5234	147.76	.44328
308.15	.5592	148.32	.44496
308.15	.5983	148.91	.44673
308.15	.6132	149.13	.44739
308.15	.6478	149.63	.44889
308.15	.6876	150.17	.45051
308.15	.7231	150.63	.45189
308.15	.7623	151.1	.4533
308.15	.7905	151.42	.45426
308.15	.8217	151.75	.45525
308.15	.8507	152.04	.45612
308.15	.9003	152.47	.45741

System: toluene + tetrahydropyran; phases: Liquid
Fixed: Pressure, kPa = 101
Property: Molar heat capacity at constant pressure, J/K/mol (Liquid); method: Small sample (50 mg) scanning calorimetry
Temperature, K	Mole fraction of tetrahydropyran	Molar heat capacity at constant pressure, J/K/mol	uncertainty
298.15	.0937	157	.471
298.15	.1369	156.86	.47058
298.15	.1932	156.64	.46992
298.15	.2308	156.46	.46938
298.15	.2894	156.15	.46845
298.15	.3187	155.98	.46794
298.15	.3507	155.79	.46737
298.15	.3916	155.52	.46656
298.15	.4206	155.32	.46596
298.15	.4618	155.02	.46506
298.15	.4906	154.81	.46443
298.15	.5137	154.63	.46389
298.15	.5517	154.32	.46296
298.15	.5907	154	.462
298.15	.6208	153.74	.46122
298.15	.6623	153.37	.46011
298.15	.6987	153.03	.45909
298.15	.7135	152.89	.45867
298.15	.751	152.52	.45756
298.15	.7917	152.1	.4563
298.15	.8246	151.75	.45525
298.15	.8516	151.45	.45435
298.15	.8914	150.99	.45297
298.15	.9123	150.74	.45222
303.15	.0937	158.5	.4755
303.15	.1369	158.39	.47517
303.15	.1932	158.18	.47454
303.15	.2308	158.01	.47403
303.15	.2894	157.71	.47313
303.15	.3187	157.54	.47262
303.15	.3507	157.35	.47205
303.15	.3916	157.09	.47127
303.15	.4206	156.9	.4707
303.15	.4618	156.61	.46983
303.15	.4906	156.4	.4692
303.15	.5137	156.23	.46869
303.15	.5517	155.94	.46782
303.15	.5907	155.62	.46686
303.15	.6208	155.38	.46614
303.15	.6623	155.02	.46506
303.15	.6987	154.69	.46407
303.15	.7135	154.56	.46368
303.15	.751	154.2	.4626
303.15	.7917	153.79	.46137
303.15	.8246	153.44	.46032
303.15	.8516	153.14	.45942
303.15	.8914	152.67	.45801
303.15	.9123	152.41	.45723
308.15	.0937	160.08	.48024
308.15	.1369	159.99	.47997
308.15	.1932	159.81	.47943
308.15	.2308	159.65	.47895
308.15	.2894	159.37	.47811
308.15	.3187	159.22	.47766
308.15	.3507	159.04	.47712
308.15	.3916	158.79	.47637
308.15	.4206	158.61	.47583
308.15	.4618	158.34	.47502
308.15	.4906	158.14	.47442
308.15	.5137	157.98	.47394
308.15	.5517	157.71	.47313
308.15	.5907	157.42	.47226
308.15	.6208	157.19	.47157
308.15	.6623	156.86	.47058
308.15	.6987	156.55	.46965
308.15	.7135	156.42	.46926
308.15	.751	156.08	.46824
308.15	.7917	155.68	.46704
308.15	.8246	155.34	.46602
308.15	.8516	155.05	.46515
308.15	.8914	154.58	.46374
308.15	.9123	154.32	.46296

System: o-xylene + tetrahydropyran; phases: Liquid
Fixed: Pressure, kPa = 101
Property: Molar heat capacity at constant pressure, J/K/mol (Liquid); method: Small sample (50 mg) scanning calorimetry
Temperature, K	Mole fraction of tetrahydropyran	Molar heat capacity at constant pressure, J/K/mol	uncertainty
298.15	.0918	184.41	.55323
298.15	.1317	183.03	.54909
298.15	.1765	181.48	.54444
298.15	.5518	167.88	.50364
298.15	.5871	166.53	.49959
298.15	.6218	165.19	.49557
298.15	.2108	180.29	.54087
298.15	.2543	178.76	.53628
298.15	.2876	177.59	.53277
298.15	.3105	176.77	.53031
298.15	.3651	174.81	.52443
298.15	.4187	172.86	.51858
298.15	.4498	171.71	.51513
298.15	.491	170.18	.51054
298.15	.5217	169.03	.50709
298.15	.6617	163.62	.49086
298.15	.6901	162.5	.4875
298.15	.7219	161.23	.48369
298.15	.7561	159.85	.47955
298.15	.7918	158.39	.47517
298.15	.8231	157.11	.47133
298.15	.8651	155.36	.46608
298.15	.8902	154.31	.46293
298.15	.9234	152.9	.4587
303.15	.0918	186	.558
303.15	.1317	184.64	.55392
303.15	.1765	183.1	.5493
303.15	.2108	181.92	.54576
303.15	.2543	180.4	.5412
303.15	.2876	179.23	.53769
303.15	.3105	178.42	.53526
303.15	.3651	176.47	.52941
303.15	.4187	174.53	.52359
303.15	.4498	173.38	.52014
303.15	.491	171.85	.51555
303.15	.5217	170.7	.5121
303.15	.5518	169.56	.50868
303.15	.5871	168.2	.5046
303.15	.6218	166.86	.50058
303.15	.6617	165.29	.49587
303.15	.6901	164.16	.49248
303.15	.7219	162.89	.48867
303.15	.7561	161.5	.4845
303.15	.7918	160.04	.48012
303.15	.8231	158.75	.47625
303.15	.8651	156.99	.47097
303.15	.8902	155.93	.46779
303.15	.9234	154.52	.46356
308.15	.0918	187.56	.56268
308.15	.1317	186.23	.55869
308.15	.1765	184.72	.55416
308.15	.2108	183.55	.55065
308.15	.2543	182.06	.54618
308.15	.2876	180.91	.54273
308.15	.3105	180.11	.54033
308.15	.3651	178.18	.53454
308.15	.5518	171.34	.51402
308.15	.5871	170	.51
308.15	.6218	168.66	.50598
308.15	.6617	167.1	.5013
308.15	.6901	165.98	.49794
308.15	.7219	164.71	.49413
308.15	.7561	163.33	.48999
308.15	.7918	161.87	.48561
308.15	.4187	176.26	.52878
308.15	.4498	175.13	.52539
308.15	.491	173.62	.52086
308.15	.5217	172.47	.51741
308.15	.8231	160.58	.48174
308.15	.8651	158.83	.47649
308.15	.8902	157.78	.47334
308.15	.9234	156.37	.46911

System: benzene + o-chlorotoluene + tetrahydropyran; phases: Liquid
Fixed: Pressure, kPa = 101
Property: Molar heat capacity at constant pressure, J/K/mol (Liquid); method: Small sample (50 mg) scanning calorimetry
Temperature, K	Mole fraction of o-chlorotoluene	Mole fraction of tetrahydropyran	Molar heat capacity at constant pressure, J/K/mol	uncertainty
298.15	.0969	.8378	152.95	.45885
298.15	.1132	.8129	153.61	.46083
298.15	.1308	.7906	154.38	.46314
298.15	.1505	.7613	155.26	.46578
298.15	.1701	.7384	156.19	.46857
298.15	.1925	.7115	157.28	.47184
298.15	.2004	.7007	157.66	.47298
298.15	.2106	.6901	158.17	.47451
298.15	.2311	.6705	159.21	.47763
298.15	.2501	.6502	160.15	.48045
298.15	.2723	.6315	161.26	.48378
298.15	.2925	.6112	162.22	.48666
298.15	.3108	.5895	163.03	.48909
298.15	.3356	.5623	164.08	.49224
298.15	.3527	.5466	164.78	.49434
298.15	.3734	.5264	165.57	.49671
298.15	.4087	.4997	166.89	.50067
298.15	.4285	.4797	167.47	.50241
298.15	.4478	.4583	167.93	.50379
298.15	.4773	.4279	168.55	.50565
298.15	.4976	.4109	169.01	.50703
298.15	.5121	.4012	169.39	.50817
298.15	.5326	.3805	169.67	.50901
298.15	.5508	.3556	169.66	.50898
298.15	.5734	.3347	169.94	.50982
298.15	.5916	.3154	170.04	.51012
298.15	.6176	.2986	170.6	.5118
298.15	.6348	.2765	170.53	.51159
298.15	.6524	.2547	170.49	.51147
298.15	.6727	.2385	170.81	.51243
298.15	.6924	.2179	170.95	.51285
298.15	.7154	.1952	171.19	.51357
298.15	.7345	.1772	171.45	.51435
298.15	.7564	.1567	171.78	.51534
298.15	.7786	.1397	172.26	.51678
298.15	.8187	.1195	173.41	.52023
303.15	.0969	.8378	154.61	.46383
303.15	.1132	.8129	155.29	.46587
303.15	.1308	.7906	156.07	.46821
303.15	.1505	.7613	156.97	.47091
303.15	.1701	.7384	157.92	.47376
303.15	.1925	.7115	159.03	.47709
303.15	.2004	.7007	159.42	.47826
303.15	.2106	.6901	159.94	.47982
303.15	.2311	.6705	160.99	.48297
303.15	.2501	.6502	161.94	.48582
303.15	.2723	.6315	163.06	.48918
303.15	.2925	.6112	164.04	.49212
303.15	.3108	.5895	164.86	.49458
303.15	.3356	.5623	165.92	.49776
303.15	.3527	.5466	166.63	.49989
303.15	.3734	.5264	167.42	.50226
303.15	.4087	.4997	168.74	.50622
303.15	.4285	.4797	169.33	.50799
303.15	.4478	.4583	169.79	.50937
303.15	.4773	.4279	170.4	.5112
303.15	.4976	.4109	170.86	.51258
303.15	.5121	.4012	171.23	.51369
303.15	.5326	.3805	171.51	.51453
303.15	.5508	.3556	171.49	.51447
303.15	.5734	.3347	171.76	.51528
303.15	.5916	.3154	171.85	.51555
303.15	.6176	.2986	172.39	.51717
303.15	.6348	.2765	172.32	.51696
303.15	.6524	.2547	172.27	.51681
303.15	.6727	.2385	172.58	.51774
303.15	.6924	.2179	172.7	.5181
303.15	.7154	.1952	172.93	.51879
303.15	.7345	.1772	173.19	.51957
303.15	.7564	.1567	173.51	.52053
303.15	.7786	.1397	173.98	.52194
303.15	.8187	.1195	175.14	.52542
308.15	.0969	.8378	156.49	.46947
308.15	.1132	.8129	157.18	.47154
308.15	.1308	.7916	157.96	.47388
308.15	.1505	.7613	158.88	.47664
308.15	.1701	.7384	159.83	.47949
308.15	.1925	.7115	160.95	.48285
308.15	.2004	.7007	161.35	.48405
308.15	.2106	.6901	161.87	.48561
308.15	.2311	.6705	162.92	.48876
308.15	.2501	.6502	163.89	.49167
308.15	.2723	.6315	165.01	.49503
308.15	.2925	.6112	165.99	.49797
308.15	.3108	.5895	166.82	.50046
308.15	.3356	.5623	167.88	.50364
308.15	.3527	.5466	168.59	.50577
308.15	.3734	.5264	169.38	.50814
308.15	.4087	.4997	170.69	.51207
308.15	.4285	.4797	171.27	.51381
308.15	.4478	.4583	171.73	.51519
308.15	.4773	.4279	172.33	.51699
308.15	.4976	.4109	172.78	.51834
308.15	.5121	.4012	173.13	.51939
308.15	.5326	.3805	173.4	.5202
308.15	.5508	.3556	173.37	.52011
308.15	.5734	.3347	173.62	.52086
308.15	.5916	.3154	173.7	.5211
308.15	.6176	.2986	174.22	.52266
308.15	.6348	.2765	174.12	.52236
308.15	.6524	.2547	174.06	.52218
308.15	.6727	.2385	174.35	.52305
308.15	.6924	.2179	174.46	.52338
308.15	.7154	.1952	174.67	.52401
308.15	.7345	.1772	174.91	.52473
308.15	.7564	.1567	175.22	.52566
308.15	.7786	.1397	175.68	.52704
308.15	.8187	.1195	176.82	.53046

System: o-chlorotoluene + toluene + tetrahydropyran; phases: Liquid
Fixed: Pressure, kPa = 101
Property: Molar heat capacity at constant pressure, J/K/mol (Liquid); method: Small sample (50 mg) scanning calorimetry
Temperature, K	Mole fraction of o-chlorotoluene	Mole fraction of tetrahydropyran	Molar heat capacity at constant pressure, J/K/mol	uncertainty
298.15	.0876	.8476	153.83	.46149
298.15	.1023	.8243	154.45	.46335
298.15	.1206	.7977	155.06	.46518
298.15	.1347	.7786	155.43	.46629
298.15	.1502	.7587	155.71	.46713
298.15	.1725	.7319	155.92	.46776
298.15	.2011	.7002	155.86	.46758
298.15	.2201	.6802	155.67	.46701
298.15	.2407	.6601	155.34	.46602
298.15	.2613	.6408	154.93	.46479
298.15	.2825	.6211	154.5	.4635
298.15	.2942	.6101	154.28	.46284
298.15	.3112	.5953	153.94	.46182
298.15	.3327	.5765	153.59	.46077
298.15	.3554	.5542	153.48	.46044
298.15	.3774	.5353	153.39	.46017
298.15	.3968	.5158	153.64	.46092
298.15	.4187	.4959	153.98	.46194
298.15	.4377	.4789	154.42	.46326
298.15	.4588	.4583	155.21	.46563
298.15	.4794	.4378	156.22	.46866
298.15	.4979	.4196	157.25	.47175
298.15	.5196	.3986	158.58	.47574
298.15	.5385	.3795	159.94	.47982
298.15	.5589	.3597	161.41	.48423
298.15	.5789	.3399	162.96	.48888
298.15	.5998	.3197	164.53	.49359
298.15	.6241	.2986	166.08	.49824
298.15	.6448	.2794	167.49	.50247
298.15	.6727	.2553	169.1	.5073
298.15	.7075	.2258	170.86	.51258
298.15	.7319	.2057	171.89	.51567
298.15	.7569	.1859	172.78	.51834
298.15	.7765	.1698	173.42	.52026
298.15	.8033	.1493	174.14	.52242
298.15	.8411	.1202	175	.525
303.15	.0876	.8476	155.48	.46644
303.15	.1023	.8243	156.1	.4683
303.15	.1206	.7977	156.74	.47022
303.15	.1347	.7786	157.12	.47136
303.15	.1502	.7587	157.44	.47232
303.15	.1725	.7319	157.7	.4731
303.15	.2011	.7002	157.75	.47325
303.15	.2201	.6802	157.63	.47289
303.15	.2407	.6601	157.39	.47217
303.15	.2613	.6408	157.08	.47124
303.15	.2825	.6211	156.75	.47025
303.15	.2942	.6101	156.58	.46974
303.15	.3112	.5953	156.31	.46893
303.15	.3327	.5765	156.05	.46815
303.15	.3554	.5542	156.02	.46806
303.15	.3774	.5353	156	.468
303.15	.3968	.5158	156.28	.46884
303.15	.4187	.4959	156.64	.46992
303.15	.4377	.4789	157.09	.47127
303.15	.4588	.4583	157.87	.47361
303.15	.4794	.4378	158.84	.47652
303.15	.4979	.4196	159.83	.47949
303.15	.5196	.3986	161.1	.4833
303.15	.5385	.3795	162.38	.48714
303.15	.5589	.3597	163.77	.49131
303.15	.5789	.3399	165.22	.49566
303.15	.5998	.3197	166.71	.50013
303.15	.6241	.2986	168.17	.50451
303.15	.6448	.2794	169.5	.5085
303.15	.6727	.2553	171.03	.51309
303.15	.7075	.2258	172.71	.51813
303.15	.7319	.2057	173.7	.5211
303.15	.7569	.1859	174.57	.52371
303.15	.7765	.1698	175.19	.52557
303.15	.8033	.1493	175.89	.52767
303.15	.8411	.1202	176.75	.53025
308.15	.0876	.8476	157.34	.47202
308.15	.1023	.8243	157.96	.47388
308.15	.1206	.7977	158.62	.47586
308.15	.1347	.7786	159.02	.47706
308.15	.1502	.7587	159.37	.47811
308.15	.1725	.7319	159.69	.47907
308.15	.2011	.7002	159.84	.47952
308.15	.2201	.6802	159.81	.47943
308.15	.2407	.6601	159.67	.47901
308.15	.2613	.6408	159.46	.47838
308.15	.2825	.6211	159.24	.47772
308.15	.2942	.6101	159.12	.47736
308.15	.3112	.5953	158.95	.47685
308.15	.3327	.5765	158.78	.47634
308.15	.3554	.5542	158.83	.47649
308.15	.3774	.5353	158.87	.47661
308.15	.3968	.5158	159.19	.47757
308.15	.4187	.4959	159.58	.47874
308.15	.4377	.4789	160.03	.48009
308.15	.4588	.4583	160.78	.48234
308.15	.4794	.4378	161.7	.4851
308.15	.4979	.4196	162.63	.48789
308.15	.5196	.3986	163.82	.49146
308.15	.5385	.3795	165.01	.49503
308.15	.5589	.3597	166.3	.4989
308.15	.5789	.3399	167.64	.50292
308.15	.5998	.3197	169.01	.50703
308.15	.6241	.2986	170.36	.51108
308.15	.6448	.2794	171.59	.51477
308.15	.6727	.2553	173.01	.51903
308.15	.7075	.2258	174.58	.52374
308.15	.7319	.2057	175.51	.52653
308.15	.7569	.1859	176.34	.52902
308.15	.7765	.1698	176.93	.53079
308.15	.8033	.1493	177.61	.53283
308.15	.8411	.1202	178.46	.53538

System: o-xylene + o-chlorotoluene + tetrahydropyran; phases: Liquid
Fixed: Pressure, kPa = 101
Property: Molar heat capacity at constant pressure, J/K/mol (Liquid); method: Small sample (50 mg) scanning calorimetry
Temperature, K	Mole fraction of o-chlorotoluene	Mole fraction of tetrahydropyran	Molar heat capacity at constant pressure, J/K/mol	uncertainty
298.15	.0896	.8436	155.88	.46764
298.15	.1065	.8201	156.69	.47007
298.15	.1368	.7767	157.99	.47397
298.15	.1502	.7587	158.41	.47523
298.15	.1701	.7362	158.74	.47622
298.15	.1879	.7151	158.98	.47694
298.15	.2034	.6987	159.03	.47709
298.15	.2306	.6707	158.98	.47694
298.15	.2511	.6501	158.86	.47658
298.15	.2734	.6318	158.47	.47541
298.15	.2942	.6101	158.41	.47523
298.15	.3154	.5911	158.2	.4746
298.15	.3376	.5701	158.13	.47439
298.15	.3597	.5508	158.06	.47418
298.15	.3659	.5463	158	.474
298.15	.3797	.5335	158.09	.47427
298.15	.3976	.5167	158.32	.47496
298.15	.4188	.4986	158.57	.47571
298.15	.4398	.4791	159.09	.47727
298.15	.4588	.4583	159.95	.47985
298.15	.4995	.4212	161.52	.48456
298.15	.5296	.3897	163.38	.49014
298.15	.5479	.3738	164.25	.49275
298.15	.5632	.3587	165.22	.49566
298.15	.5865	.3367	166.62	.49986
298.15	.6076	.3182	167.75	.50325
298.15	.6287	.2981	169.05	.50715
298.15	.6395	.2871	169.78	.50934
298.15	.6598	.2684	170.9	.5127
298.15	.6817	.2496	171.9	.5157
298.15	.7156	.2202	173.32	.51996
298.15	.7319	.2057	173.96	.52188
298.15	.7521	.1898	174.51	.52353
298.15	.7776	.1695	175.15	.52545
298.15	.8028	.1488	175.71	.52713
298.15	.8293	.1294	176.1	.5283
303.15	.0896	.8436	157.51	.47253
303.15	.1065	.8201	158.33	.47499
303.15	.1368	.7767	159.67	.47901
303.15	.1502	.7587	160.11	.48033
303.15	.1701	.7362	160.47	.48141
303.15	.1879	.7151	160.73	.48219
303.15	.2034	.6987	160.82	.48246
303.15	.2306	.6707	160.82	.48246
303.15	.2511	.6501	160.74	.48222
303.15	.2734	.6318	160.39	.48117
303.15	.2942	.6101	160.36	.48108
303.15	.3154	.5911	160.18	.48054
303.15	.3376	.5701	160.15	.48045
303.15	.3597	.5508	160.11	.48033
303.15	.3659	.5463	160.05	.48015
303.15	.3797	.5335	160.16	.48048
303.15	.3976	.5167	160.39	.48117
303.15	.4188	.4986	160.66	.48198
303.15	.4398	.4791	161.17	.48351
303.15	.4588	.4583	162.03	.48609
303.15	.4995	.4212	163.59	.49077
303.15	.5296	.3897	165.41	.49623
303.15	.5479	.3738	166.26	.49878
303.15	.5632	.3587	167.21	.50163
303.15	.5865	.3367	168.58	.50574
303.15	.6076	.3182	169.68	.50904
303.15	.6287	.2981	170.95	.51285
303.15	.6395	.2871	171.66	.51498
303.15	.6598	.2684	172.76	.51828
303.15	.6817	.2496	173.73	.52119
303.15	.7156	.2202	175.12	.52536
303.15	.7319	.2057	175.74	.52722
303.15	.7521	.1898	176.28	.52884
303.15	.7776	.1695	176.9	.5307
303.15	.8028	.1488	177.46	.53238
303.15	.8293	.1294	177.84	.53352
308.15	.0896	.8436	159.34	.47802
308.15	.1065	.8201	160.17	.48051
308.15	.1368	.7767	161.52	.48456
308.15	.1502	.7587	161.98	.48594
308.15	.1701	.7362	162.35	.48705
308.15	.1879	.7151	162.65	.48795
308.15	.2034	.6987	162.75	.48825
308.15	.2306	.6707	162.79	.48837
308.15	.2511	.6501	162.73	.48819
308.15	.2734	.6318	162.42	.48726
308.15	.2942	.6101	162.41	.48723
308.15	.3154	.5911	162.26	.48678
308.15	.3376	.5701	162.24	.48672
308.15	.3597	.5508	162.21	.48663
308.15	.3659	.5463	162.16	.48648
308.15	.3797	.5335	162.27	.48681
308.15	.3976	.5167	162.51	.48753
308.15	.4188	.4986	162.78	.48834
308.15	.4398	.4791	163.29	.48987
308.15	.4588	.4583	164.14	.49242
308.15	.4995	.4212	165.66	.49698
308.15	.5296	.3897	167.45	.50235
308.15	.5479	.3738	168.29	.50487
308.15	.5632	.3587	169.21	.50763
308.15	.5865	.3367	170.55	.51165
308.15	.6076	.3182	171.62	.51486
308.15	.6287	.2981	172.86	.51858
308.15	.6395	.2871	173.55	.52065
308.15	.6598	.2684	174.61	.52383
308.15	.6817	.2496	175.56	.52668
308.15	.7156	.2202	176.9	.5307
308.15	.7319	.2057	177.51	.53253
308.15	.7521	.1898	178.03	.53409
308.15	.7776	.1695	178.63	.53589
308.15	.8028	.1488	179.17	.53751
308.15	.8293	.1294	179.55	.53865
