Measured thermophysical data. Vapor-liquid equilibrium measurement and modeling for the difluoromethane + pentafluoroethane + propane ternary mixture
Source: Fluid Phase Equilib., 2010, 10.1016/j.fluid.2010.07.018
Compound 1: difluoromethane, CH2F2, purity 99.9%
Compound 2: pentafluoroethane, C2HF5, purity 99.9%
Compound 3: propane, C3H8, purity 99.9%

System: propane + difluoromethane + pentafluoroethane; phases: Liquid, Gas
Property: Vapor or sublimation pressure, kPa (Liquid); method: Ebulliometric method (Recirculating still)
Temperature, K	Mole fraction of difluoromethane	Mole fraction of pentafluoroethane	Vapor or sublimation pressure, kPa	uncertainty
263.15	.6519	.1024	755.8	.6
263.15	.6182	.1039	755.6	.6
263.15	.4516	.0738	754	.6
263.15	.3316	.2784	704.2	.6
263.15	.2756	.4032	682.9	.6
263.15	.2457	.47	669.5	.6
278.15	.4595	.2575	1134.4	.6
278.15	.5982	.1985	1153.3	.6
278.15	.7035	.1571	1144.5	.6
278.15	.5578	.3557	1054.8	.6
278.15	.5409	.3338	1089.6	.6
278.15	.4765	.282	1129.3	.6
278.15	.3841	.2276	1127.3	.6
293.15	.3975	.3386	1660.3	.6
293.15	.6203	.2242	1701.8	.6
293.15	.7303	.1696	1679	.6
293.15	.6474	.2776	1612.4	.6
293.15	.2205	.0903	1563	.6
293.15	.1728	.2707	1539.6	.6
293.15	.1329	.4089	1513.1	.6
293.15	.4627	.2585	1699.3	.6
308.15	.2561	.2879	2294.7	.6
308.15	.4085	.2314	2429.2	.6
308.15	.543	.1828	2503.9	.6
308.15	.4667	.3322	2398.5	.6
308.15	.3824	.4597	2298.3	.6
308.15	.3101	.5673	2207.3	.6
308.15	.3816	.0939	2427.3	.6
308.15	.5306	.0762	2545.3	.6
323.15	.5217	.0774	3543.6	.6
323.15	.1131	.355	2943.4	.6
323.15	.2367	.3065	3163.8	.6
323.15	.4604	.2196	3445.3	.6
323.15	.6513	.1478	3542.9	.6
323.15	.0747	.507	2951.9	.6
323.15	.1671	.4637	3086.1	.6
323.15	.3895	.3472	3336.4	.6

System: propane + difluoromethane + pentafluoroethane; phases: Gas, Liquid
Property: Mole fraction of difluoromethane (Gas); method: Chromatography
Temperature, K	Mole fraction of difluoromethane	Mole fraction of pentafluoroethane	Mole fraction of difluoromethane	uncertainty
263.15	.6519	.1024	.6275	.001
263.15	.6182	.1039	.6053	.001
263.15	.4516	.0738	.5315	.001
263.15	.3316	.2784	.3716	.001
263.15	.2756	.4032	.2989	.001
263.15	.2457	.47	.2661	.001
278.15	.4595	.2575	.4756	.001
278.15	.5982	.1985	.5913	.001
278.15	.7035	.1571	.6821	.001
278.15	.5578	.3557	.5603	.001
278.15	.5409	.3338	.541	.001
278.15	.4765	.282	.4854	.001
278.15	.3841	.2276	.4261	.001
293.15	.3975	.3386	.4198	.001
293.15	.6203	.2242	.6144	.001
293.15	.7303	.1696	.7144	.001
293.15	.6474	.2776	.6455	.001
293.15	.2205	.0903	.3713	.001
293.15	.1728	.2707	.2389	.001
293.15	.1329	.4089	.1649	.001
293.15	.4627	.2585	.4825	.001
308.15	.2561	.2879	.3077	.001
308.15	.4085	.2314	.4474	.001
308.15	.543	.1828	.5582	.001
308.15	.4667	.3322	.4805	.001
308.15	.3824	.4597	.3982	.001
308.15	.3101	.5673	.331	.001
308.15	.3816	.0939	.4642	.001
308.15	.5306	.0762	.5714	.001
323.15	.5217	.0774	.5674	.001
323.15	.1131	.355	.1495	.001
323.15	.2367	.3065	.2813	.001
323.15	.4604	.2196	.488	.001
323.15	.6513	.1478	.6493	.001
323.15	.0747	.507	.09	.001
323.15	.1671	.4637	.1943	.001
323.15	.3895	.3472	.4141	.001

System: propane + difluoromethane + pentafluoroethane; phases: Gas, Liquid
Property: Mole fraction of pentafluoroethane (Gas); method: Chromatography
Temperature, K	Mole fraction of difluoromethane	Mole fraction of pentafluoroethane	Mole fraction of pentafluoroethane	uncertainty
263.15	.6519	.1024	.0901	.001
263.15	.6182	.1039	.0914	.001
263.15	.4516	.0738	.076	.001
263.15	.3316	.2784	.2674	.001
263.15	.2756	.4032	.3737	.001
263.15	.2457	.47	.4275	.001
278.15	.4595	.2575	.2333	.001
278.15	.5982	.1985	.1774	.001
278.15	.7035	.1571	.141	.001
278.15	.5578	.3557	.3235	.001
278.15	.5409	.3338	.2979	.001
278.15	.4765	.282	.252	.001
278.15	.3841	.2276	.2177	.001
293.15	.3975	.3386	.3071	.001
293.15	.6203	.2242	.2039	.001
293.15	.7303	.1696	.1539	.001
293.15	.6474	.2776	.2571	.001
293.15	.2205	.0903	.1187	.001
293.15	.1728	.2707	.2999	.001
293.15	.1329	.4089	.4229	.001
293.15	.4627	.2585	.2342	.001
308.15	.2561	.2879	.2917	.001
308.15	.4085	.2314	.219	.001
308.15	.543	.1828	.1666	.001
308.15	.4667	.3322	.3001	.001
308.15	.3824	.4597	.4202	.001
308.15	.3101	.5673	.5191	.001
308.15	.3816	.0939	.0983	.001
308.15	.5306	.0762	.0729	.001
323.15	.5217	.0774	.0752	.001
323.15	.1131	.355	.3918	.001
323.15	.2367	.3065	.3147	.001
323.15	.4604	.2196	.2076	.001
323.15	.6513	.1478	.133	.001
323.15	.0747	.507	.5224	.001
323.15	.1671	.4637	.4602	.001
323.15	.3895	.3472	.3229	.001

System: propane + difluoromethane + pentafluoroethane; phases: Liquid, Gas
Property: Mole fraction of pentafluoroethane (Liquid); method: Chromatography
Property: Mole fraction of difluoromethane (Gas); method: Chromatography
Property: Mole fraction of pentafluoroethane (Gas); method: Chromatography
Temperature, K	Pressure, kPa	Mole fraction of difluoromethane	Mole fraction of pentafluoroethane	uncertainty	Mole fraction of difluoromethane	uncertainty	Mole fraction of pentafluoroethane	uncertainty
263.15	755.8	.6519	.1024	.001	.6275	.001	.0901	.001
278.15	1054.8	.5578	.3557	.001	.5603	.001	.3235	.001
278.15	1089.6	.5409	.3338	.001	.541	.001	.2979	.001
278.15	1129.3	.4765	.282	.001	.4854	.001	.252	.001
278.15	1127.3	.3841	.2276	.001	.4261	.001	.2177	.001
293.15	1660.3	.3975	.3386	.001	.4198	.001	.3071	.001
293.15	1701.8	.6203	.2242	.001	.6144	.001	.2039	.001
293.15	1679	.7303	.1696	.001	.7144	.001	.1539	.001
293.15	1612.4	.6474	.2776	.001	.6455	.001	.2571	.001
293.15	1563	.2205	.0903	.001	.3713	.001	.1187	.001
293.15	1539.6	.1728	.2707	.001	.2389	.001	.2999	.001
263.15	755.6	.6182	.1039	.001	.6053	.001	.0914	.001
293.15	1513.1	.1329	.4089	.001	.1649	.001	.4229	.001
293.15	1699.3	.4627	.2585	.001	.4825	.001	.2342	.001
308.15	2294.7	.2561	.2879	.001	.3077	.001	.2917	.001
308.15	2429.2	.4085	.2314	.001	.4474	.001	.219	.001
308.15	2503.9	.543	.1828	.001	.5582	.001	.1666	.001
308.15	2398.5	.4667	.3322	.001	.4805	.001	.3001	.001
308.15	2298.3	.3824	.4597	.001	.3982	.001	.4202	.001
308.15	2207.3	.3101	.5673	.001	.331	.001	.5191	.001
308.15	2427.3	.3816	.0939	.001	.4642	.001	.0983	.001
308.15	2545.3	.5306	.0762	.001	.5714	.001	.0729	.001
263.15	754	.4516	.0738	.001	.5315	.001	.076	.001
323.15	3543.6	.5217	.0774	.001	.5674	.001	.0752	.001
323.15	2943.4	.1131	.355	.001	.1495	.001	.3918	.001
323.15	3163.8	.2367	.3065	.001	.2813	.001	.3147	.001
323.15	3445.3	.4604	.2196	.001	.488	.001	.2076	.001
323.15	3542.9	.6513	.1478	.001	.6493	.001	.133	.001
323.15	2951.9	.0747	.507	.001	.09	.001	.5224	.001
323.15	3086.1	.1671	.4637	.001	.1943	.001	.4602	.001
323.15	3336.4	.3895	.3472	.001	.4141	.001	.3229	.001
263.15	704.2	.3316	.2784	.001	.3716	.001	.2674	.001
263.15	682.9	.2756	.4032	.001	.2989	.001	.3737	.001
263.15	669.5	.2457	.47	.001	.2661	.001	.4275	.001
278.15	1134.4	.4595	.2575	.001	.4756	.001	.2333	.001
278.15	1153.3	.5982	.1985	.001	.5913	.001	.1774	.001
278.15	1144.5	.7035	.1571	.001	.6821	.001	.141	.001
