Measured thermophysical data. Isobaric vapor liquid equilibrium for binary mixtures of 1-hexene + n-hexane and cyclohexane + cyclohexene at 30, 60 and 101.3 kPa
Source: Fluid Phase Equilib., 2009, 10.1016/j.fluid.2008.12.007
Compound 1: hexane, C6H14, purity 99.5%
Compound 2: cyclohexane, C6H12, purity 99.8%
Compound 3: cyclohexene, C6H10, purity 99.5%
Compound 4: 1-hexene, C6H12, purity 99%

System: hexane; phases: Liquid, Gas
Property: Vapor or sublimation pressure, kPa (Liquid); method: Ebulliometric method (Recirculating still)
Temperature, K	Vapor or sublimation pressure, kPa	uncertainty
303.16	25.04	
305.43	27.5	
307.43	29.95	
309.54	32.44	
311.47	35.07	
313.25	37.51	
314.84	39.98	
316.52	42.44	
317.92	45.02	
319.49	47.45	
320.76	50.01	
322.26	52.52	
323.37	55.03	
324.59	57.32	
325.89	60.07	
326.95	62.46	
328.09	64.77	
329.19	67.22	
330.16	69.64	
331.45	72.45	
332.28	74.82	
333.48	77.48	
334.39	79.84	
335.33	82.31	
336.26	84.88	
337.14	87.26	
338.02	89.85	
338.91	92.35	
339.73	94.85	
340.44	97.02	
341.79	101.32	

System: cyclohexane; phases: Liquid, Gas
Property: Vapor or sublimation pressure, kPa (Liquid); method: Ebulliometric method (Recirculating still)
Temperature, K	Vapor or sublimation pressure, kPa	uncertainty
313.4	24.95	
315.76	27.43	
318.05	29.95	
320.11	32.46	
322.06	34.9	
323.92	37.43	
325.66	39.94	
327.32	42.42	
328.9	44.91	
330.44	47.45	
331.94	49.92	
333.33	52.43	
334.6	54.76	
335.99	57.44	
337.31	59.98	
338.5	62.44	
339.65	64.86	
340.81	67.47	
341.92	69.94	
342.99	72.45	
344.05	74.96	
344.09	75.07	
345.11	77.54	
346.07	79.92	
347.06	82.52	
348.01	85.03	
348.86	87.27	
349.84	89.99	
350.73	92.48	
351.55	94.84	
353.73	101.33	

System: cyclohexene; phases: Liquid, Gas
Property: Vapor or sublimation pressure, kPa (Liquid); method: Ebulliometric method (Recirculating still)
Temperature, K	Vapor or sublimation pressure, kPa	uncertainty
315.56	24.94	
318.01	27.43	
320.26	29.98	
322.34	32.47	
324.31	34.95	
326.23	37.52	
327.96	39.98	
329.61	42.45	
331.23	45.01	
332.73	47.48	
334.22	50.02	
335.62	52.51	
336.98	55.02	
338.27	57.52	
339.52	59.98	
340.73	62.46	
341.94	65.02	
343.07	67.51	
344.16	69.97	
345.27	72.51	
346.3	74.96	
347.33	77.48	
348.35	80.02	
349.31	82.52	
350.26	84.99	
351.18	87.45	
352.09	89.96	
352.97	92.46	
353.85	95.01	
354.71	97.52	
355.97	101.33	

System: 1-hexene; phases: Liquid, Gas
Property: Vapor or sublimation pressure, kPa (Liquid); method: Ebulliometric method (Recirculating still)
Temperature, K	Vapor or sublimation pressure, kPa	uncertainty
298.07	24.93	
300.32	27.41	
302.55	30.08	
304.54	32.46	
306.31	34.84	
308.2	37.48	
309.84	39.96	
311.51	42.53	
312.98	44.96	
314.38	47.42	
315.79	49.92	
317.17	52.53	
318.43	54.98	
319.62	57.39	
320.84	59.94	
322.02	62.51	
323.16	64.97	
324.21	67.45	
325.25	69.88	
326.29	72.44	
327.32	75.04	
328.25	77.45	
329.21	79.98	
330.11	82.42	
331.01	84.93	
331.86	87.33	
332.74	89.92	
333.62	92.54	
334.38	94.82	
335.24	97.45	
336.48	101.3	

System: hexane + 1-hexene; phases: Liquid, Gas
Property: Activity coefficient of hexane (Liquid); method: Chromatography
Pressure, kPa	Temperature, K	Activity coefficient of hexane	uncertainty
30	302.92	1.058	
30	303.01	1.05	
30	303.21	1.029	
30	303.44	1.018	
30	303.81	1.026	
30	304.07	1.022	
30	304.33	1.012	
30	304.61	1.016	
30	304.91	1.02	
30	305.14	1.014	
30	305.43	1.006	
30	305.61	1.006	
30	305.84	1.005	
30	306.02	1.007	
30	306.29	1.007	
30	306.59	1.002	
30	306.82	.999	
30	307	1.001	
30	307.24	.998	
30	307.4	1	
30	307.52	1	
60	321.13	1.032	
60	321.19	1.03	
60	321.39	1.024	
60	321.66	1.026	
60	321.92	1.017	
60	322.25	1.006	
60	322.46	1.009	
60	322.7	1.009	
60	322.97	1.013	
60	323.22	1.006	
60	323.62	1.002	
60	323.91	1.005	
60	324.21	1.001	
60	324.42	1.001	
60	324.76	.998	
60	324.97	.999	
60	325.23	.998	
60	325.32	.996	
60	325.6	.996	
60	325.88	.996	
60	325.99	.996	
101.3	336.67	1.035	
101.3	336.79	1.051	
101.3	337.03	1.037	
101.3	337.27	1.023	
101.3	337.51	1.016	
101.3	337.68	1.013	
101.3	337.96	1.014	
101.3	338.29	1.015	
101.3	338.43	1.012	
101.3	338.73	1.012	
101.3	339.03	1.009	
101.3	339.27	1.01	
101.3	339.57	1.006	
101.3	339.76	1.005	
101.3	340.24	.997	
101.3	340.54	1	
101.3	340.83	.998	
101.3	341.14	.998	
101.3	341.4	.998	
101.3	341.57	1.001	
101.3	341.73	1.001	

System: hexane + 1-hexene; phases: Liquid, Gas
Property: Activity coefficient of 1-hexene (Liquid); method: Chromatography
Pressure, kPa	Temperature, K	Activity coefficient of 1-hexene	uncertainty
30	302.92	.987	
30	303.01	.988	
30	303.21	.991	
30	303.44	.995	
30	303.81	.993	
30	304.07	.995	
30	304.33	1.001	
30	304.61	.997	
30	304.91	.993	
30	305.14	.996	
30	305.43	1.003	
30	305.61	1.006	
30	305.84	1.01	
30	306.02	1.01	
30	306.29	1.007	
30	306.59	1.007	
30	306.82	1.015	
30	307	1.01	
30	307.24	1.019	
30	307.4	1.013	
30	307.52	.997	
60	321.13	.995	
60	321.19	.997	
60	321.39	.999	
60	321.66	.997	
60	321.92	.998	
60	322.25	.998	
60	322.46	1	
60	322.7	1	
60	322.97	.997	
60	323.22	1.004	
60	323.62	1.003	
60	323.91	.999	
60	324.21	1.003	
60	324.42	1.008	
60	324.76	1.009	
60	324.97	1.004	
60	325.23	1.005	
60	325.32	1.011	
60	325.6	1.015	
60	325.88	1.012	
60	325.99	1.006	
101.3	336.67	.997	
101.3	336.79	.996	
101.3	337.03	.996	
101.3	337.27	.998	
101.3	337.51	.997	
101.3	337.68	1	
101.3	337.96	.999	
101.3	338.29	.996	
101.3	338.43	1.002	
101.3	338.73	1.001	
101.3	339.03	1.001	
101.3	339.27	.998	
101.3	339.57	1.003	
101.3	339.76	1.007	
101.3	340.24	1.006	
101.3	340.54	1.001	
101.3	340.83	1.005	
101.3	341.14	1.008	
101.3	341.4	1.017	
101.3	341.57	1.021	
101.3	341.73	1.028	

System: hexane + 1-hexene; phases: Liquid, Gas
Property: Boiling temperature at pressure P, K (Liquid); method: Ebulliometric method (Recirculating still)
Mole fraction of 1-hexene	Pressure, kPa	Boiling temperature at pressure P, K	uncertainty
.005	60	325.99	
.009	30	307.52	
.012	101.3	341.73	
.024	60	325.88	
.026	30	307.4	
.035	101.3	341.57	
.059	30	307.24	
.069	60	325.6	
.074	101.3	341.4	
.093	30	307	
.119	60	325.32	
.12	101.3	341.14	
.128	30	306.82	
.129	60	325.23	
.167	30	306.59	
.172	60	324.97	
.172	101.3	340.83	
.205	30	306.29	
.211	60	324.76	
.22	101.3	340.54	
.251	30	306.02	
.262	60	324.42	
.274	101.3	340.24	
.292	30	305.84	
.309	60	324.21	
.326	101.3	339.76	
.338	30	305.61	
.364	60	323.91	
.365	101.3	339.57	
.38	30	305.43	
.422	60	323.62	
.422	101.3	339.27	
.433	30	305.14	
.461	101.3	339.03	
.476	30	304.91	
.486	60	323.22	
.512	101.3	338.73	
.54	30	304.61	
.543	60	322.97	
.568	101.3	338.43	
.595	30	304.33	
.6	60	322.7	
.614	101.3	338.29	
.652	60	322.46	
.657	30	304.07	
.672	101.3	337.96	
.712	60	322.25	
.72	30	303.81	
.728	101.3	337.68	
.77	60	321.92	
.777	101.3	337.51	
.803	30	303.44	
.814	101.3	337.27	
.829	60	321.66	
.87	101.3	337.03	
.871	30	303.21	
.885	60	321.39	
.925	101.3	336.79	
.929	30	303.01	
.941	60	321.19	
.958	101.3	336.67	
.965	30	302.92	
.975	60	321.13	

System: hexane + 1-hexene; phases: Gas, Liquid
Property: Mole fraction of 1-hexene (Gas); method: Chromatography
Mole fraction of 1-hexene	Pressure, kPa	Mole fraction of 1-hexene	uncertainty
.005	60	.007	
.009	30	.01	
.012	101.3	.014	
.024	60	.029	
.026	30	.032	
.035	101.3	.041	
.059	30	.072	
.069	60	.083	
.074	101.3	.089	
.093	30	.112	
.119	60	.14	
.12	101.3	.141	
.128	30	.154	
.129	60	.151	
.167	30	.198	
.172	60	.199	
.172	101.3	.199	
.205	30	.24	
.211	60	.244	
.22	101.3	.251	
.251	30	.292	
.262	60	.298	
.274	101.3	.311	
.292	30	.337	
.309	60	.349	
.326	101.3	.366	
.338	30	.385	
.364	60	.405	
.365	101.3	.405	
.38	30	.429	
.422	60	.466	
.422	101.3	.461	
.433	30	.479	
.461	101.3	.501	
.476	30	.521	
.486	60	.53	
.512	101.3	.552	
.54	30	.586	
.543	60	.582	
.568	101.3	.607	
.595	30	.642	
.6	60	.64	
.614	101.3	.649	
.652	60	.689	
.657	30	.697	
.672	101.3	.705	
.712	60	.745	
.72	30	.754	
.728	101.3	.758	
.77	60	.797	
.777	101.3	.802	
.803	30	.831	
.814	101.3	.836	
.829	60	.849	
.87	101.3	.884	
.871	30	.889	
.885	60	.9	
.925	101.3	.933	
.929	30	.938	
.941	60	.949	
.958	101.3	.963	
.965	30	.97	
.975	60	.979	

System: cyclohexane + cyclohexene; phases: Liquid, Gas
Property: Activity coefficient of cyclohexane (Liquid); method: Chromatography
Pressure, kPa	Temperature, K	Activity coefficient of cyclohexane	uncertainty
30	318.11	.996	
30	318.14	.996	
30	318.18	.996	
30	318.24	.997	
30	318.34	.996	
30	318.38	.997	
30	318.46	.997	
30	318.55	.996	
30	318.62	1.001	
30	318.7	1.001	
30	318.84	1.002	
30	318.9	1.007	
30	319.06	1.007	
30	319.18	1.011	
30	319.25	1.014	
30	319.45	1.015	
30	319.59	1.022	
30	319.72	1.027	
30	319.9	1.031	
30	320.08	1.03	
30	320.28	1.029	
60	337.32	1	
60	337.36	.999	
60	337.41	.999	
60	337.44	1	
60	337.52	1	
60	337.55	1.002	
60	337.62	1.003	
60	337.7	1.004	
60	337.79	1.006	
60	337.93	1.005	
60	337.97	1.009	
60	338.07	1.009	
60	338.22	1.01	
60	338.33	1.014	
60	338.46	1.014	
60	338.66	1.018	
60	338.78	1.021	
60	338.97	1.027	
60	339.17	1.028	
60	339.4	1.029	
60	339.52	1.008	
101.3	353.78	.998	
101.3	353.81	.997	
101.3	353.84	.998	
101.3	353.9	.997	
101.3	353.95	.997	
101.3	354.02	.999	
101.3	354.05	1.001	
101.3	354.15	1.002	
101.3	354.23	1.002	
101.3	354.33	1.002	
101.3	354.44	1.004	
101.3	354.51	1.007	
101.3	354.65	1.009	
101.3	354.8	1.012	
101.3	354.92	1.012	
101.3	355.06	1.017	
101.3	355.23	1.018	
101.3	355.44	1.021	
101.3	355.57	1.027	
101.3	355.8	1.037	
101.3	355.94	1.054	

System: cyclohexane + cyclohexene; phases: Liquid, Gas
Property: Activity coefficient of cyclohexene (Liquid); method: Chromatography
Pressure, kPa	Temperature, K	Activity coefficient of cyclohexene	uncertainty
30	318.11	1.092	
30	318.14	1.039	
30	318.18	1.05	
30	318.24	1.03	
30	318.34	1.028	
30	318.38	1.027	
30	318.46	1.025	
30	318.55	1.027	
30	318.62	1.019	
30	318.7	1.02	
30	318.84	1.015	
30	318.9	1.013	
30	319.06	1.009	
30	319.18	1.007	
30	319.25	1.009	
30	319.45	1.006	
30	319.59	1.004	
30	319.72	1.004	
30	319.9	1.004	
30	320.08	1.004	
30	320.28	1.001	
60	337.32	1.075	
60	337.36	1.024	
60	337.41	1.033	
60	337.44	1.026	
60	337.52	1.021	
60	337.55	1.019	
60	337.62	1.017	
60	337.7	1.015	
60	337.79	1.009	
60	337.93	1.008	
60	337.97	1.007	
60	338.07	1.009	
60	338.22	1.006	
60	338.33	1.004	
60	338.46	1.004	
60	338.66	1	
60	338.78	1.001	
60	338.97	.999	
60	339.17	.998	
60	339.4	.997	
60	339.52	.997	
101.3	353.78	1.067	
101.3	353.81	1.066	
101.3	353.84	1.028	
101.3	353.9	1.03	
101.3	353.95	1.031	
101.3	354.02	1.019	
101.3	354.05	1.017	
101.3	354.15	1.014	
101.3	354.23	1.014	
101.3	354.33	1.014	
101.3	354.44	1.01	
101.3	354.51	1.01	
101.3	354.65	1.007	
101.3	354.8	1.004	
101.3	354.92	1.005	
101.3	355.06	1.003	
101.3	355.23	1.003	
101.3	355.44	1.001	
101.3	355.57	1.001	
101.3	355.8	1	
101.3	355.94	.999	

System: cyclohexane + cyclohexene; phases: Liquid, Gas
Property: Boiling temperature at pressure P, K (Liquid); method: Ebulliometric method (Recirculating still)
Mole fraction of cyclohexane	Pressure, kPa	Boiling temperature at pressure P, K	uncertainty
.024	60	339.52	
.024	101.3	355.94	
.025	30	320.28	
.059	60	339.4	
.059	101.3	355.8	
.062	30	320.08	
.118	101.3	355.57	
.119	60	339.17	
.122	30	319.9	
.177	101.3	355.44	
.178	30	319.72	
.178	60	338.97	
.233	101.3	355.23	
.238	30	319.59	
.239	60	338.78	
.291	101.3	355.06	
.294	30	319.45	
.298	60	338.66	
.348	101.3	354.92	
.352	30	319.25	
.358	60	338.46	
.401	101.3	354.8	
.404	30	319.18	
.413	60	338.33	
.459	101.3	354.65	
.46	30	319.06	
.468	60	338.22	
.513	30	318.9	
.515	101.3	354.51	
.522	60	338.07	
.566	30	318.84	
.569	101.3	354.44	
.574	60	337.97	
.617	30	318.7	
.622	101.3	354.33	
.623	60	337.93	
.669	30	318.62	
.675	60	337.79	
.675	101.3	354.23	
.722	30	318.55	
.722	101.3	354.15	
.724	60	337.7	
.77	101.3	354.05	
.772	30	318.46	
.772	60	337.62	
.817	30	318.38	
.817	101.3	354.02	
.819	60	337.55	
.861	30	318.34	
.862	101.3	353.95	
.863	60	337.52	
.904	30	318.24	
.904	60	337.44	
.904	101.3	353.9	
.942	101.3	353.84	
.944	30	318.18	
.944	60	337.41	
.977	101.3	353.81	
.978	60	337.36	
.979	30	318.14	
.983	101.3	353.78	
.994	60	337.32	
.995	30	318.11	

System: cyclohexane + cyclohexene; phases: Gas, Liquid
Property: Mole fraction of cyclohexane (Gas); method: Chromatography
Mole fraction of cyclohexane	Pressure, kPa	Mole fraction of cyclohexane	uncertainty
.024	60	.026	
.024	101.3	.027	
.025	30	.028	
.059	60	.065	
.059	101.3	.065	
.062	30	.069	
.118	101.3	.128	
.119	60	.13	
.122	30	.135	
.177	101.3	.19	
.178	30	.195	
.178	60	.193	
.233	101.3	.248	
.238	30	.258	
.239	60	.256	
.291	101.3	.308	
.294	30	.315	
.298	60	.317	
.348	101.3	.365	
.352	30	.374	
.358	60	.377	
.401	101.3	.419	
.404	30	.427	
.413	60	.433	
.459	101.3	.476	
.46	30	.482	
.468	60	.487	
.513	30	.534	
.515	101.3	.531	
.522	60	.54	
.566	30	.585	
.569	101.3	.584	
.574	60	.592	
.617	30	.634	
.622	101.3	.635	
.623	60	.639	
.669	30	.685	
.675	60	.69	
.675	101.3	.687	
.722	30	.734	
.722	101.3	.733	
.724	60	.736	
.77	101.3	.779	
.772	30	.783	
.772	60	.782	
.817	30	.826	
.817	101.3	.824	
.819	60	.827	
.861	30	.868	
.862	101.3	.866	
.863	60	.869	
.904	30	.909	
.904	60	.908	
.904	101.3	.907	
.942	101.3	.944	
.944	30	.946	
.944	60	.946	
.977	101.3	.977	
.978	60	.979	
.979	30	.98	
.983	101.3	.983	
.994	60	.994	
.995	30	.995	
