Measured thermophysical data. Measurement and correlation of isobaric vapor-liquid equilibria of methanol + tetrahydrofuran + 1-alkyl-3-methylimidazolium bis(trifluoromethylsulfonyl)imide at 101.3 kPa
Source: Fluid Phase Equilib., 2016, 10.1016/j.fluid.2016.04.012
Compound 1: methanol, CH4O, purity 99.9%
Compound 2: tetrahydrofuran, C4H8O, purity 99.9%
Compound 3: 1-butyl-3-methylimidazolium bis(trifluoromethylsulfonyl)imide, C10H15F6N3O4S2, purity 98%
Compound 4: 1-hexyl-3-methylimidazolium bis(trifluoromethylsulfonyl)imide, C12H19F6N3O4S2, purity 98%

System: methanol; phases: Liquid, Gas
Property: Vapor or sublimation pressure, kPa (Liquid); method: Closed cell (Static) method
Temperature, K	Vapor or sublimation pressure, kPa	uncertainty
337.85	101.3	

System: tetrahydrofuran; phases: Liquid, Gas
Property: Vapor or sublimation pressure, kPa (Liquid); method: Closed cell (Static) method
Temperature, K	Vapor or sublimation pressure, kPa	uncertainty
338.65	101.3	

System: methanol + tetrahydrofuran; phases: Liquid, Gas
Fixed: Pressure, kPa = 101.3
Property: Boiling temperature at pressure P, K (Liquid); method: Closed cell (Static) method
Mole fraction of methanol	Boiling temperature at pressure P, K	uncertainty
0	338.65	
.075	335.85	
.19	334.05	
.299	333.15	
.406	332.65	
.455	332.55	
.504	332.55	
.573	332.65	
.608	332.75	
.662	332.85	
.718	333.15	
.767	333.45	
.817	333.95	
.868	334.55	
.925	335.55	
1	337.85	

System: methanol + tetrahydrofuran; phases: Gas, Liquid
Fixed: Pressure, kPa = 101.3
Property: Mole fraction of methanol (Gas); method: Chromatography
Mole fraction of methanol	Mole fraction of methanol	uncertainty
0	0	
.075	.132	
.19	.276	
.299	.37	
.406	.44	
.455	.473	
.504	.502	
.573	.538	
.608	.564	
.662	.603	
.718	.64	
.767	.683	
.817	.734	
.868	.788	
.925	.864	
1	1	

System: methanol + tetrahydrofuran + 1-butyl-3-methylimidazolium bis(trifluoromethylsulfonyl)imide; phases: Liquid, Gas
Fixed: Pressure, kPa = 101.3
Property: Mole fraction of 1-butyl-3-methylimidazolium bis(trifluoromethylsulfonyl)imide (Liquid); method: Chromatography
Temperature, K	Mole fraction of methanol	Mole fraction of 1-butyl-3-methylimidazolium bis(trifluoromethylsulfonyl)imide	uncertainty
337.15	.082	.05	.001
341.75	.104	.149	.001
340.75	.145	.15	.001
339.65	.237	.15	.001
339.35	.324	.15	.001
338.95	.422	.15	.001
339.05	.505	.148	.001
339.25	.577	.145	.001
340.65	.676	.15	.001
341.55	.768	.15	.001
350.05	.05	.249	.001
335.75	.159	.05	.001
348.95	.123	.248	.001
348.15	.197	.25	.001
347.45	.269	.25	.001
347.75	.353	.247	.001
348.15	.433	.25	.001
349.35	.499	.25	.001
351.05	.576	.25	.001
352.75	.65	.249	.001
334.75	.275	.05	.001
334.25	.356	.05	.001
334.15	.478	.05	.001
334.45	.575	.05	.001
335.05	.667	.05	.001
335.95	.755	.05	.001
337.35	.843	.049	.001

System: methanol + tetrahydrofuran + 1-hexyl-3-methylimidazolium bis(trifluoromethylsulfonyl)imide; phases: Liquid, Gas
Fixed: Pressure, kPa = 101.3
Property: Mole fraction of 1-hexyl-3-methylimidazolium bis(trifluoromethylsulfonyl)imide (Liquid); method: Chromatography
Temperature, K	Mole fraction of methanol	Mole fraction of 1-hexyl-3-methylimidazolium bis(trifluoromethylsulfonyl)imide	uncertainty
337.55	.082	.05	.001
342.95	.071	.15	.001
341.55	.15	.15	.001
340.75	.237	.15	.001
340.35	.327	.15	.001
340.05	.41	.15	.001
340.25	.499	.15	.001
340.85	.581	.15	.001
341.35	.664	.149	.001
342.45	.755	.15	.001
352.35	.051	.25	.001
335.55	.195	.049	.001
351.05	.113	.249	.001
350.65	.178	.249	.001
350.05	.265	.249	.001
349.75	.337	.249	.001
350.25	.407	.249	.001
350.65	.483	.25	.001
351.25	.563	.249	.001
353.05	.655	.25	.001
334.85	.266	.05	.001
334.45	.373	.05	.001
334.35	.485	.05	.001
334.65	.576	.05	.001
335.25	.67	.05	.001
336.15	.765	.05	.001
337.15	.853	.05	.001
