Measured thermophysical data. Excess second-order thermodynamic derivatives of the {2-propanol + water} system from 313.15 K to 403.15 K up to 140 MPa. Experimental and Monte Carlo simulation study
Source: Fluid Phase Equilib., 2013, 10.1016/j.fluid.2013.08.007
Compound 1: 2-propanol, C3H8O, purity 99.9%
Compound 2: water, H2O, purity 99.9%

System: 2-propanol; phases: Liquid
Property: Mass density, kg/m3 (Liquid); method: Vibrating tube method
Temperature, K	Pressure, kPa	Mass density, kg/m3	uncertainty
323.15	100	758.87	.379435
323.15	5000	763.96	.38198
323.15	10000	768.84	.38442
323.15	15000	773.34	.38667
323.15	20000	777.63	.388815
323.15	25000	781.69	.390845
323.15	30000	785.6	.3928
323.15	35000	789.17	.394585
323.15	40000	792.74	.39637
323.15	50000	799.4	.3997
323.15	60000	805.57	.402785
343.15	100	738.88	.36944
343.15	5000	744.75	.372375
343.15	10000	750.17	.375085
343.15	15000	755.4	.3777
343.15	20000	760.17	.380085
343.15	25000	764.81	.382405
343.15	30000	769.03	.384515
343.15	35000	773.28	.38664
343.15	40000	777.23	.388615
343.15	50000	784.53	.392265
343.15	60000	791.22	.39561

System: 2-propanol; phases: Liquid
Property: Molar heat capacity at constant pressure, J/K/mol (Liquid); method: Flow calorimetry
Pressure, kPa	Temperature, K	Molar heat capacity at constant pressure, J/K/mol	uncertainty
100	313.15	75.33	1.5066
20000	313.15	72.6	1.452
40000	313.15	70.88	1.4176
100	333.15	91.86	1.8372
20000	333.15	102.8	2.056
40000	333.15	99.51	1.9902
100	353.15	108.57	2.1714
20000	353.15	128.01	2.5602
40000	353.15	122.37	2.4474

System: water; phases: Liquid
Property: Mass density, kg/m3 (Liquid); method: Vibrating tube method
Temperature, K	Pressure, kPa	Mass density, kg/m3	uncertainty
323.15	100	758.87	.379435
323.15	5000	763.96	.38198
323.15	10000	768.84	.38442
323.15	15000	773.34	.38667
323.15	20000	777.63	.388815
323.15	25000	781.69	.390845
323.15	30000	785.6	.3928
323.15	35000	789.17	.394585
323.15	40000	792.74	.39637
323.15	50000	799.4	.3997
323.15	60000	805.57	.402785
343.15	100	738.88	.36944
343.15	5000	744.75	.372375
343.15	10000	750.17	.375085
343.15	15000	755.4	.3777
343.15	20000	760.17	.380085
343.15	25000	764.81	.382405
343.15	30000	769.03	.384515
343.15	35000	773.28	.38664
343.15	40000	777.23	.388615
343.15	50000	784.53	.392265
343.15	60000	791.22	.39561

System: water; phases: Liquid
Property: Molar heat capacity at constant pressure, J/K/mol (Liquid); method: Flow calorimetry
Pressure, kPa	Temperature, K	Molar heat capacity at constant pressure, J/K/mol	uncertainty
100	313.15	40.91	.8182
20000	313.15	40.08	.8016
40000	313.15	39.35	.787
100	333.15	41.01	.8202
20000	333.15	40.48	.8096
40000	333.15	39.81	.7962
100	353.15	41.22	.8244
20000	353.15	41.21	.8242
40000	353.15	40.45	.809

System: 2-propanol + water; phases: Liquid
Property: Mass density, kg/m3 (Liquid); method: Vibrating tube method
Mole fraction of 2-propanol	Pressure, kPa	Temperature, K	Mass density, kg/m3	uncertainty
.15	100	313.15	921	.4605
.15	5000	313.15	923.39	.461695
.15	10000	313.15	925.87	.462935
.15	15000	313.15	928.23	.464115
.15	20000	313.15	930.66	.46533
.15	25000	313.15	932.91	.466455
.15	30000	313.15	935.07	.467535
.15	35000	313.15	937.31	.468655
.15	40000	313.15	939.46	.46973
.15	50000	313.15	943.78	.47189
.15	60000	313.15	947.74	.47387
.15	70000	313.15	951.68	.47584
.15	80000	313.15	955.52	.47776
.15	90000	313.15	959.12	.47956
.15	100000	313.15	962.87	.481435
.15	110000	313.15	966.42	.48321
.15	120000	313.15	969.84	.48492
.15	130000	313.15	973.22	.48661
.15	140000	313.15	976.41	.488205
.15	100	323.15	912.77	.456385
.15	5000	323.15	915.45	.457725
.15	10000	323.15	918.15	.459075
.15	15000	323.15	920.66	.46033
.15	20000	323.15	923.1	.46155
.15	25000	323.15	925.53	.462765
.15	30000	323.15	927.87	.463935
.15	35000	323.15	929.99	.464995
.15	40000	323.15	932.2	.4661
.15	50000	323.15	936.51	.468255
.15	60000	323.15	940.61	.470305
.15	70000	323.15	944.57	.472285
.15	80000	323.15	948.48	.47424
.15	90000	323.15	952.34	.47617
.15	100000	323.15	955.96	.47798
.15	110000	323.15	959.64	.47982
.15	120000	323.15	963.09	.481545
.15	130000	323.15	966.48	.48324
.15	140000	323.15	969.82	.48491
.15	100	333.15	904.61	.452305
.15	5000	333.15	907.03	.453515
.15	10000	333.15	909.82	.45491
.15	15000	333.15	912.37	.456185
.15	20000	333.15	914.9	.45745
.15	25000	333.15	917.35	.458675
.15	30000	333.15	919.76	.45988
.15	35000	333.15	922.18	.46109
.15	40000	333.15	924.5	.46225
.15	50000	333.15	929.07	.464535
.15	60000	333.15	933.22	.46661
.15	70000	333.15	937.49	.468745
.15	80000	333.15	941.68	.47084
.15	90000	333.15	945.55	.472775
.15	100000	333.15	949.52	.47476
.15	110000	333.15	953.19	.476595
.15	120000	333.15	956.8	.4784
.15	130000	333.15	960.1	.48005
.15	140000	333.15	963.51	.481755
.15	100	343.15	895.84	.44792
.15	5000	343.15	898.72	.44936
.15	10000	343.15	901.48	.45074
.15	15000	343.15	904.22	.45211
.15	20000	343.15	906.83	.453415
.15	25000	343.15	909.5	.45475
.15	30000	343.15	911.9	.45595
.15	35000	343.15	914.53	.457265
.15	40000	343.15	917.01	.458505
.15	50000	343.15	921.64	.46082
.15	60000	343.15	926.13	.463065
.15	70000	343.15	929.85	.464925
.15	80000	343.15	934.55	.467275
.15	90000	343.15	938.46	.46923
.15	100000	343.15	942.34	.47117
.15	110000	343.15	946.21	.473105
.15	120000	343.15	949.87	.474935
.15	130000	343.15	953.43	.476715
.15	140000	343.15	956.99	.478495
.15	100	353.15	886.85	.443425
.15	5000	353.15	889.93	.444965
.15	10000	353.15	892.88	.44644
.15	15000	353.15	895.71	.447855
.15	20000	353.15	898.59	.449295
.15	25000	353.15	901.3	.45065
.15	30000	353.15	903.49	.451745
.15	35000	353.15	906.15	.453075
.15	40000	353.15	908.68	.45434
.15	50000	353.15	914.11	.457055
.15	60000	353.15	918.46	.45923
.15	70000	353.15	923.02	.46151
.15	80000	353.15	927.14	.46357
.15	90000	353.15	931.28	.46564
.15	100000	353.15	935.09	.467545
.15	110000	353.15	939.24	.46962
.15	120000	353.15	943.08	.47154
.15	130000	353.15	946.67	.473335
.15	140000	353.15	950.3	.47515
.15	5000	363.15	880.9	.44045
.15	10000	363.15	883.96	.44198
.15	15000	363.15	886.96	.44348
.15	20000	363.15	889.93	.444965
.15	25000	363.15	892.68	.44634
.15	30000	363.15	895.47	.447735
.15	35000	363.15	898.07	.449035
.15	40000	363.15	900.73	.450365
.15	50000	363.15	906.01	.453005
.15	60000	363.15	910.82	.45541
.15	70000	363.15	915.47	.457735
.15	80000	363.15	919.76	.45988
.15	90000	363.15	924.1	.46205
.15	100000	363.15	928.42	.46421
.15	110000	363.15	932.25	.466125
.15	120000	363.15	936.05	.468025
.15	130000	363.15	939.83	.469915
.15	140000	363.15	943.39	.471695
.15	5000	373.15	871.47	.435735
.15	10000	373.15	874.81	.437405
.15	15000	373.15	877.97	.438985
.15	20000	373.15	881.04	.44052
.15	25000	373.15	884.07	.442035
.15	30000	373.15	886.87	.443435
.15	35000	373.15	889.69	.444845
.15	40000	373.15	892.44	.44622
.15	50000	373.15	897.75	.448875
.15	60000	373.15	902.77	.451385
.15	70000	373.15	907.58	.45379
.15	80000	373.15	912.18	.45609
.15	90000	373.15	916.59	.458295
.15	100000	373.15	920.86	.46043
.15	110000	373.15	925.07	.462535
.15	120000	373.15	929.02	.46451
.15	130000	373.15	932.83	.466415
.15	140000	373.15	936.66	.46833
.15	5000	383.15	861.41	.430705
.15	10000	383.15	864.96	.43248
.15	15000	383.15	868.27	.434135
.15	20000	383.15	871.49	.435745
.15	25000	383.15	874.69	.437345
.15	30000	383.15	877.62	.43881
.15	35000	383.15	880.61	.440305
.15	40000	383.15	883.41	.441705
.15	50000	383.15	889.05	.444525
.15	60000	383.15	894.41	.447205
.15	70000	383.15	899.26	.44963
.15	80000	383.15	904.13	.452065
.15	90000	383.15	908.7	.45435
.15	100000	383.15	913.04	.45652
.15	110000	383.15	917.41	.458705
.15	120000	383.15	921.61	.460805
.15	130000	383.15	925.47	.462735
.15	140000	383.15	929.4	.4647
.15	5000	393.15	851.52	.42576
.15	10000	393.15	855	.4275
.15	15000	393.15	858.51	.429255
.15	20000	393.15	861.97	.430985
.15	25000	393.15	865.24	.43262
.15	30000	393.15	868.37	.434185
.15	35000	393.15	871.44	.43572
.15	40000	393.15	874.55	.437275
.15	50000	393.15	880.57	.440285
.15	60000	393.15	885.89	.442945
.15	70000	393.15	891.16	.44558
.15	80000	393.15	896.03	.448015
.15	90000	393.15	900.9	.45045
.15	100000	393.15	905.48	.45274
.15	110000	393.15	909.86	.45493
.15	120000	393.15	914.14	.45707
.15	130000	393.15	918.22	.45911
.15	140000	393.15	922.28	.46114
.15	5000	403.15	840.62	.42031
.15	10000	403.15	844.57	.422285
.15	15000	403.15	848.33	.424165
.15	20000	403.15	851.89	.425945
.15	25000	403.15	855.35	.427675
.15	30000	403.15	858.82	.42941
.15	35000	403.15	861.9	.43095
.15	40000	403.15	865.19	.432595
.15	50000	403.15	871.84	.43592
.15	60000	403.15	877.43	.438715
.15	70000	403.15	883	.4415
.15	80000	403.15	887.88	.44394
.15	90000	403.15	892.88	.44644
.15	100000	403.15	897.59	.448795
.15	110000	403.15	902.18	.45109
.15	120000	403.15	906.59	.453295
.15	130000	403.15	910.91	.455455
.15	140000	403.15	915.06	.45753
.3	100	313.15	868.56	.43428
.3	5000	313.15	871.71	.435855
.3	10000	313.15	874.82	.43741
.3	15000	313.15	877.76	.43888
.3	20000	313.15	880.64	.44032
.3	25000	313.15	883.36	.44168
.3	30000	313.15	885.96	.44298
.3	35000	313.15	888.65	.444325
.3	40000	313.15	891.07	.445535
.3	50000	313.15	896.11	.448055
.3	60000	313.15	900.68	.45034
.3	70000	313.15	905.18	.45259
.3	80000	313.15	909.48	.45474
.3	90000	313.15	913.55	.456775
.3	100000	313.15	917.69	.458845
.3	110000	313.15	921.54	.46077
.3	120000	313.15	925.3	.46265
.3	130000	313.15	928.93	.464465
.3	140000	313.15	932.49	.466245
.3	100	323.15	859.89	.429945
.3	5000	323.15	863.27	.431635
.3	10000	323.15	866.57	.433285
.3	15000	323.15	869.7	.43485
.3	20000	323.15	872.69	.436345
.3	25000	323.15	875.59	.437795
.3	30000	323.15	878.44	.43922
.3	35000	323.15	881.06	.44053
.3	40000	323.15	883.73	.441865
.3	50000	323.15	888.87	.444435
.3	60000	323.15	893.63	.446815
.3	70000	323.15	898.16	.44908
.3	80000	323.15	902.57	.451285
.3	90000	323.15	906.86	.45343
.3	100000	323.15	910.94	.45547
.3	110000	323.15	914.95	.457475
.3	120000	323.15	918.76	.45938
.3	130000	323.15	922.45	.461225
.3	140000	323.15	926.06	.46303
.3	100	333.15	850.78	.42539
.3	5000	333.15	854.08	.42704
.3	10000	333.15	857.55	.428775
.3	15000	333.15	860.71	.430355
.3	20000	333.15	863.82	.43191
.3	25000	333.15	866.87	.433435
.3	30000	333.15	869.79	.434895
.3	35000	333.15	872.73	.436365
.3	40000	333.15	875.48	.43774
.3	50000	333.15	880.87	.440435
.3	60000	333.15	885.7	.44285
.3	70000	333.15	890.55	.445275
.3	80000	333.15	895.25	.447625
.3	90000	333.15	899.64	.44982
.3	100000	333.15	904.1	.45205
.3	110000	333.15	908.12	.45406
.3	120000	333.15	912.05	.456025
.3	130000	333.15	915.71	.457855
.3	140000	333.15	919.37	.459685
.3	100	343.15	841.13	.420565
.3	5000	343.15	844.85	.422425
.3	10000	343.15	848.36	.42418
.3	15000	343.15	851.86	.42593
.3	20000	343.15	855.15	.427575
.3	25000	343.15	858.34	.42917
.3	30000	343.15	861.35	.430675
.3	35000	343.15	864.48	.43224
.3	40000	343.15	867.42	.43371
.3	50000	343.15	872.92	.43646
.3	60000	343.15	878.1	.43905
.3	70000	343.15	883.08	.44154
.3	80000	343.15	887.84	.44392
.3	90000	343.15	892.31	.446155
.3	100000	343.15	896.6	.4483
.3	110000	343.15	900.85	.450425
.3	120000	343.15	904.83	.452415
.3	130000	343.15	908.69	.454345
.3	140000	343.15	912.65	.456325
.3	100	353.15	831.42	.41571
.3	5000	353.15	835.34	.41767
.3	10000	353.15	839.1	.41955
.3	15000	353.15	842.74	.42137
.3	20000	353.15	846.25	.423125
.3	25000	353.15	849.59	.424795
.3	30000	353.15	852.6	.4263
.3	35000	353.15	855.8	.4279
.3	40000	353.15	858.81	.429405
.3	50000	353.15	865	.4325
.3	60000	353.15	870.37	.435185
.3	70000	353.15	875.64	.43782
.3	80000	353.15	880.36	.44018
.3	90000	353.15	885.05	.442525
.3	100000	353.15	889.36	.44468
.3	110000	353.15	893.82	.44691
.3	120000	353.15	897.97	.448985
.3	130000	353.15	901.89	.450945
.3	140000	353.15	905.83	.452915
.3	5000	363.15	825.44	.41272
.3	10000	363.15	829.56	.41478
.3	15000	363.15	833.42	.41671
.3	20000	363.15	837.1	.41855
.3	25000	363.15	840.54	.42027
.3	30000	363.15	843.91	.421955
.3	35000	363.15	847.13	.423565
.3	40000	363.15	850.38	.42519
.3	50000	363.15	856.61	.428305
.3	60000	363.15	862.28	.43114
.3	70000	363.15	867.63	.433815
.3	80000	363.15	872.55	.436275
.3	90000	363.15	877.53	.438765
.3	100000	363.15	882.35	.441175
.3	110000	363.15	886.59	.443295
.3	120000	363.15	890.86	.44543
.3	130000	363.15	894.95	.447475
.3	140000	363.15	898.86	.44943
.3	5000	373.15	815.14	.40757
.3	10000	373.15	819.47	.409735
.3	15000	373.15	823.31	.411655
.3	20000	373.15	827.31	.413655
.3	25000	373.15	831.16	.41558
.3	30000	373.15	834.71	.417355
.3	35000	373.15	838.12	.41906
.3	40000	373.15	841.54	.42077
.3	50000	373.15	847.84	.42392
.3	60000	373.15	853.75	.426875
.3	70000	373.15	859.34	.42967
.3	80000	373.15	864.2	.4321
.3	90000	373.15	869.6	.4348
.3	100000	373.15	874.53	.437265
.3	110000	373.15	879.04	.43952
.3	120000	373.15	883.57	.441785
.3	130000	373.15	887.82	.44391
.3	140000	373.15	892	.446
.3	5000	383.15	804.29	.402145
.3	10000	383.15	808.87	.404435
.3	15000	383.15	813.15	.406575
.3	20000	383.15	817.3	.40865
.3	25000	383.15	821.34	.41067
.3	30000	383.15	825.03	.412515
.3	35000	383.15	828.65	.414325
.3	40000	383.15	832.15	.416075
.3	50000	383.15	838.83	.419415
.3	60000	383.15	845.15	.422575
.3	70000	383.15	850.82	.42541
.3	80000	383.15	856.37	.428185
.3	90000	383.15	861.59	.430795
.3	100000	383.15	866.51	.433255
.3	110000	383.15	871.42	.43571
.3	120000	383.15	876.12	.43806
.3	130000	383.15	880.32	.44016
.3	140000	383.15	884.66	.44233
.3	5000	393.15	793.38	.39669
.3	10000	393.15	798.12	.39906
.3	15000	393.15	802.82	.40141
.3	20000	393.15	807.17	.403585
.3	25000	393.15	811.35	.405675
.3	30000	393.15	815.32	.40766
.3	35000	393.15	819.1	.40955
.3	40000	393.15	822.91	.411455
.3	50000	393.15	830.07	.415035
.3	60000	393.15	836.44	.41822
.3	70000	393.15	842.58	.42129
.3	80000	393.15	848.2	.4241
.3	90000	393.15	853.75	.426875
.3	100000	393.15	859	.4295
.3	110000	393.15	863.97	.431985
.3	120000	393.15	868.72	.43436
.3	130000	393.15	873.27	.436635
.3	140000	393.15	877.75	.438875
.3	5000	403.15	781.53	.390765
.3	10000	403.15	786.87	.393435
.3	15000	403.15	791.83	.395915
.3	20000	403.15	796.53	.398265
.3	25000	403.15	800.89	.400445
.3	30000	403.15	805.25	.402625
.3	35000	403.15	809.15	.404575
.3	40000	403.15	813.18	.40659
.3	50000	403.15	821.12	.41056
.3	60000	403.15	827.72	.41386
.3	70000	403.15	834.22	.41711
.3	80000	403.15	839.89	.419945
.3	90000	403.15	845.58	.42279
.3	100000	403.15	850.91	.425455
.3	110000	403.15	856.06	.42803
.3	120000	403.15	861.02	.43051
.3	130000	403.15	865.8	.4329
.3	140000	403.15	870.36	.43518
.5	100	313.15	825.15	.412575
.5	5000	313.15	828.64	.41432
.5	10000	313.15	832.25	.416125
.5	15000	313.15	835.64	.41782
.5	20000	313.15	838.98	.41949
.5	25000	313.15	842.18	.42109
.5	30000	313.15	845.17	.422585
.5	35000	313.15	848.24	.42412
.5	40000	313.15	851.18	.42559
.5	50000	313.15	856.83	.428415
.5	60000	313.15	862.01	.431005
.5	70000	313.15	866.99	.433495
.5	80000	313.15	871.61	.435805
.5	90000	313.15	876.02	.43801
.5	100000	313.15	880.44	.44022
.5	110000	313.15	884.61	.442305
.5	120000	313.15	888.57	.444285
.5	130000	313.15	892.51	.446255
.5	140000	313.15	896.22	.44811
.5	100	323.15	815.77	.407885
.5	5000	323.15	819.79	.409895
.5	10000	323.15	823.69	.411845
.5	15000	323.15	827.32	.41366
.5	20000	323.15	830.87	.415435
.5	25000	323.15	834.2	.4171
.5	30000	323.15	837.48	.41874
.5	35000	323.15	840.49	.420245
.5	40000	323.15	843.55	.421775
.5	50000	323.15	849.3	.42465
.5	60000	323.15	854.67	.427335
.5	70000	323.15	859.71	.429855
.5	80000	323.15	864.57	.432285
.5	90000	323.15	869.25	.434625
.5	100000	323.15	873.7	.43685
.5	110000	323.15	878	.439
.5	120000	323.15	882.11	.441055
.5	130000	323.15	886.05	.443025
.5	140000	323.15	889.9	.44495
.5	100	333.15	806.15	.403075
.5	5000	333.15	810.22	.40511
.5	10000	333.15	814.35	.407175
.5	15000	333.15	818.17	.409085
.5	20000	333.15	821.85	.410925
.5	25000	333.15	825.36	.41268
.5	30000	333.15	828.76	.41438
.5	35000	333.15	832.1	.41605
.5	40000	333.15	835.27	.417635
.5	50000	333.15	841.34	.42067
.5	60000	333.15	846.81	.423405
.5	70000	333.15	852.22	.42611
.5	80000	333.15	857.39	.428695
.5	90000	333.15	862.23	.431115
.5	100000	333.15	867.03	.433515
.5	110000	333.15	871.38	.43569
.5	120000	333.15	875.69	.437845
.5	130000	333.15	879.61	.439805
.5	140000	333.15	883.58	.44179
.5	100	343.15	795.99	.397995
.5	5000	343.15	800.58	.40029
.5	10000	343.15	804.88	.40244
.5	15000	343.15	809.06	.40453
.5	20000	343.15	812.84	.40642
.5	25000	343.15	816.55	.408275
.5	30000	343.15	820.02	.41001
.5	35000	343.15	823.57	.411785
.5	40000	343.15	826.94	.41347
.5	50000	343.15	833.18	.41659
.5	60000	343.15	839.02	.41951
.5	70000	343.15	844.53	.422265
.5	80000	343.15	849.78	.42489
.5	90000	343.15	854.66	.42733
.5	100000	343.15	859.39	.429695
.5	110000	343.15	864.02	.43201
.5	120000	343.15	868.33	.434165
.5	130000	343.15	872.5	.43625
.5	140000	343.15	876.67	.438335
.5	100	353.15	785.63	.392815
.5	5000	353.15	790.48	.39524
.5	10000	353.15	795.08	.39754
.5	15000	353.15	799.52	.39976
.5	20000	353.15	803.7	.40185
.5	25000	353.15	807.57	.403785
.5	30000	353.15	811.13	.405565
.5	35000	353.15	814.78	.40739
.5	40000	353.15	818.21	.409105
.5	50000	353.15	825.24	.41262
.5	60000	353.15	831.22	.41561
.5	70000	353.15	837.12	.41856
.5	80000	353.15	842.4	.4212
.5	90000	353.15	847.54	.42377
.5	100000	353.15	852.35	.426175
.5	110000	353.15	857.21	.428605
.5	120000	353.15	861.7	.43085
.5	130000	353.15	865.96	.43298
.5	140000	353.15	870.11	.435055
.5	5000	363.15	780.06	.39003
.5	10000	363.15	785.14	.39257
.5	15000	363.15	789.84	.39492
.5	20000	363.15	794.23	.397115
.5	25000	363.15	798.21	.399105
.5	30000	363.15	802.16	.40108
.5	35000	363.15	805.76	.40288
.5	40000	363.15	809.48	.40474
.5	50000	363.15	816.71	.408355
.5	60000	363.15	823.21	.411605
.5	70000	363.15	829.28	.41464
.5	80000	363.15	834.63	.417315
.5	90000	363.15	839.96	.41998
.5	100000	363.15	845.23	.422615
.5	110000	363.15	849.89	.424945
.5	120000	363.15	854.5	.42725
.5	130000	363.15	859.13	.429565
.5	140000	363.15	863.46	.43173
.5	5000	373.15	769.19	.384595
.5	10000	373.15	774.68	.38734
.5	15000	373.15	779.38	.38969
.5	20000	373.15	784.15	.392075
.5	25000	373.15	788.66	.39433
.5	30000	373.15	792.86	.39643
.5	35000	373.15	796.89	.398445
.5	40000	373.15	800.75	.400375
.5	50000	373.15	808	.404
.5	60000	373.15	814.72	.40736
.5	70000	373.15	820.98	.41049
.5	80000	373.15	826.87	.413435
.5	90000	373.15	832.48	.41624
.5	100000	373.15	837.78	.41889
.5	110000	373.15	842.75	.421375
.5	120000	373.15	847.66	.42383
.5	130000	373.15	852.26	.42613
.5	140000	373.15	856.74	.42837
.5	5000	383.15	757.62	.37881
.5	10000	383.15	763.35	.381675
.5	15000	383.15	768.64	.38432
.5	20000	383.15	773.68	.38684
.5	25000	383.15	778.44	.38922
.5	30000	383.15	782.77	.391385
.5	35000	383.15	787.06	.39353
.5	40000	383.15	791.07	.395535
.5	50000	383.15	798.81	.399405
.5	60000	383.15	806.08	.40304
.5	70000	383.15	812.58	.40629
.5	80000	383.15	818.85	.409425
.5	90000	383.15	824.45	.412225
.5	100000	383.15	829.77	.414885
.5	110000	383.15	835.05	.417525
.5	120000	383.15	840.26	.42013
.5	130000	383.15	844.98	.42249
.5	140000	383.15	849.61	.424805
.5	5000	393.15	746	.373
.5	10000	393.15	752.12	.37606
.5	15000	393.15	757.88	.37894
.5	20000	393.15	763.3	.38165
.5	25000	393.15	768.39	.384195
.5	30000	393.15	773.05	.386525
.5	35000	393.15	777.44	.38872
.5	40000	393.15	781.76	.39088
.5	50000	393.15	789.98	.39499
.5	60000	393.15	797.37	.398685
.5	70000	393.15	804.35	.402175
.5	80000	393.15	810.71	.405355
.5	90000	393.15	816.81	.408405
.5	100000	393.15	822.41	.411205
.5	110000	393.15	827.64	.41382
.5	120000	393.15	832.81	.416405
.5	130000	393.15	837.7	.41885
.5	140000	393.15	842.47	.421235
.5	5000	403.15	733.47	.366735
.5	10000	403.15	740.26	.37013
.5	15000	403.15	746.45	.373225
.5	20000	403.15	752.17	.376085
.5	25000	403.15	757.6	.3788
.5	30000	403.15	762.79	.381395
.5	35000	403.15	767.41	.383705
.5	40000	403.15	772.12	.38606
.5	50000	403.15	781.13	.390565
.5	60000	403.15	788.75	.394375
.5	70000	403.15	795.99	.397995
.5	80000	403.15	802.4	.4012
.5	90000	403.15	808.69	.404345
.5	100000	403.15	814.59	.407295
.5	110000	403.15	820.19	.410095
.5	120000	403.15	825.6	.4128
.5	130000	403.15	830.69	.415345
.5	140000	403.15	835.61	.417805
.7	100	313.15	795.91	.397955
.7	5000	313.15	800.04	.40002
.7	10000	313.15	804.19	.402095
.7	15000	313.15	808.01	.404005
.7	20000	313.15	811.73	.405865
.7	25000	313.15	815.23	.407615
.7	30000	313.15	818.57	.409285
.7	35000	313.15	821.85	.410925
.7	40000	313.15	824.96	.41248
.7	50000	313.15	831.05	.415525
.7	60000	313.15	836.58	.41829
.7	70000	313.15	841.89	.420945
.7	80000	313.15	846.93	.423465
.7	90000	313.15	851.64	.42582
.7	100000	313.15	856.32	.42816
.7	110000	313.15	860.76	.43038
.7	120000	313.15	864.92	.43246
.7	130000	313.15	869.03	.434515
.7	140000	313.15	872.91	.436455
.7	100	323.15	786.56	.39328
.7	5000	323.15	791.2	.3956
.7	10000	323.15	795.62	.39781
.7	15000	323.15	799.71	.399855
.7	20000	323.15	803.6	.4018
.7	25000	323.15	807.23	.403615
.7	30000	323.15	810.79	.405395
.7	35000	323.15	814.06	.40703
.7	40000	323.15	817.37	.408685
.7	50000	323.15	823.55	.411775
.7	60000	323.15	829.32	.41466
.7	70000	323.15	834.74	.41737
.7	80000	323.15	839.9	.41995
.7	90000	323.15	844.88	.42244
.7	100000	323.15	849.54	.42477
.7	110000	323.15	854.07	.427035
.7	120000	323.15	858.38	.42919
.7	130000	323.15	862.51	.431255
.7	140000	323.15	866.43	.433215
.7	100	333.15	776.99	.388495
.7	5000	333.15	781.51	.390755
.7	10000	333.15	786.18	.39309
.7	15000	333.15	790.44	.39522
.7	20000	333.15	794.56	.39728
.7	25000	333.15	798.46	.39923
.7	30000	333.15	802.18	.40109
.7	35000	333.15	805.83	.402915
.7	40000	333.15	809.26	.40463
.7	50000	333.15	815.85	.407925
.7	60000	333.15	821.76	.41088
.7	70000	333.15	827.55	.413775
.7	80000	333.15	833.04	.41652
.7	90000	333.15	838.1	.41905
.7	100000	333.15	843.22	.42161
.7	110000	333.15	847.78	.42389
.7	120000	333.15	852.31	.426155
.7	130000	333.15	856.43	.428215
.7	140000	333.15	860.52	.43026
.7	100	343.15	766.56	.38328
.7	5000	343.15	771.75	.385875
.7	10000	343.15	776.61	.388305
.7	15000	343.15	781.26	.39063
.7	20000	343.15	785.59	.392795
.7	25000	343.15	789.78	.39489
.7	30000	343.15	793.67	.396835
.7	35000	343.15	797.62	.39881
.7	40000	343.15	801.26	.40063
.7	50000	343.15	808.07	.404035
.7	60000	343.15	814.4	.4072
.7	70000	343.15	820.37	.410185
.7	80000	343.15	825.92	.41296
.7	90000	343.15	831.09	.415545
.7	100000	343.15	836.14	.41807
.7	110000	343.15	841.01	.420505
.7	120000	343.15	845.59	.422795
.7	130000	343.15	849.98	.42499
.7	140000	343.15	854.3	.42715
.7	100	353.15	756.1	.37805
.7	5000	353.15	761.6	.3808
.7	10000	353.15	766.79	.383395
.7	15000	353.15	771.61	.385805
.7	20000	353.15	776.3	.38815
.7	25000	353.15	780.59	.390295
.7	30000	353.15	784.61	.392305
.7	35000	353.15	788.62	.39431
.7	40000	353.15	792.4	.3962
.7	50000	353.15	799.99	.399995
.7	60000	353.15	806.54	.40327
.7	70000	353.15	812.81	.406405
.7	80000	353.15	818.49	.409245
.7	90000	353.15	823.99	.411995
.7	100000	353.15	829.01	.414505
.7	110000	353.15	834.06	.41703
.7	120000	353.15	838.82	.41941
.7	130000	353.15	843.23	.421615
.7	140000	353.15	847.62	.42381
.7	5000	363.15	750.85	.375425
.7	10000	363.15	756.48	.37824
.7	15000	363.15	761.78	.38089
.7	20000	363.15	766.69	.383345
.7	25000	363.15	771.3	.38565
.7	30000	363.15	775.77	.387885
.7	35000	363.15	779.86	.38993
.7	40000	363.15	783.88	.39194
.7	50000	363.15	791.66	.39583
.7	60000	363.15	798.53	.399265
.7	70000	363.15	805.01	.402505
.7	80000	363.15	810.92	.40546
.7	90000	363.15	816.65	.408325
.7	100000	363.15	822.27	.411135
.7	110000	363.15	827.18	.41359
.7	120000	363.15	832.02	.41601
.7	130000	363.15	836.63	.418315
.7	140000	363.15	841.03	.420515
.7	5000	373.15	739.57	.369785
.7	10000	373.15	745.7	.37285
.7	15000	373.15	751.33	.375665
.7	20000	373.15	756.64	.37832
.7	25000	373.15	761.67	.380835
.7	30000	373.15	766.3	.38315
.7	35000	373.15	770.74	.38537
.7	40000	373.15	775.03	.387515
.7	50000	373.15	782.96	.39148
.7	60000	373.15	790.18	.39509
.7	70000	373.15	796.94	.39847
.7	80000	373.15	803.21	.401605
.7	90000	373.15	809.12	.40456
.7	100000	373.15	814.73	.407365
.7	110000	373.15	820.06	.41003
.7	120000	373.15	825.21	.412605
.7	130000	373.15	829.88	.41494
.7	140000	373.15	834.6	.4173
.7	5000	383.15	727.75	.363875
.7	10000	383.15	734.36	.36718
.7	15000	383.15	740.47	.370235
.7	20000	383.15	746.16	.37308
.7	25000	383.15	751.54	.37577
.7	30000	383.15	756.43	.378215
.7	35000	383.15	761.2	.3806
.7	40000	383.15	765.62	.38281
.7	50000	383.15	774.08	.38704
.7	60000	383.15	781.75	.390875
.7	70000	383.15	788.7	.39435
.7	80000	383.15	795.32	.39766
.7	90000	383.15	801.41	.400705
.7	100000	383.15	807.15	.403575
.7	110000	383.15	812.77	.406385
.7	120000	383.15	818.07	.409035
.7	130000	383.15	822.9	.41145
.7	140000	383.15	827.69	.413845
.7	5000	393.15	715.72	.35786
.7	10000	393.15	722.81	.361405
.7	15000	393.15	729.38	.36469
.7	20000	393.15	735.56	.36778
.7	25000	393.15	741.25	.370625
.7	30000	393.15	746.53	.373265
.7	35000	393.15	751.48	.37574
.7	40000	393.15	756.33	.378165
.7	50000	393.15	765.29	.382645
.7	60000	393.15	773.26	.38663
.7	70000	393.15	780.69	.390345
.7	80000	393.15	787.42	.39371
.7	90000	393.15	793.87	.396935
.7	100000	393.15	799.91	.399955
.7	110000	393.15	805.64	.40282
.7	120000	393.15	810.99	.405495
.7	130000	393.15	816.11	.408055
.7	140000	393.15	821.08	.41054
.7	5000	403.15	702.55	.351275
.7	10000	403.15	710.52	.35526
.7	15000	403.15	717.77	.358885
.7	20000	403.15	724.37	.362185
.7	25000	403.15	730.44	.36522
.7	30000	403.15	736.2	.3681
.7	35000	403.15	741.4	.3707
.7	40000	403.15	746.58	.37329
.7	50000	403.15	756.34	.37817
.7	60000	403.15	764.69	.382345
.7	70000	403.15	772.59	.386295
.7	80000	403.15	779.5	.38975
.7	90000	403.15	786.09	.393045
.7	100000	403.15	792.31	.396155
.7	110000	403.15	798.23	.399115
.7	120000	403.15	803.83	.401915
.7	130000	403.15	809.2	.4046
.7	140000	403.15	814.27	.407135
.85	100	313.15	780.99	.390495
.85	5000	313.15	785.41	.392705
.85	10000	313.15	789.68	.39484
.85	15000	313.15	793.74	.39687
.85	20000	313.15	797.67	.398835
.85	25000	313.15	801.35	.400675
.85	30000	313.15	804.78	.40239
.85	35000	313.15	808.13	.404065
.85	40000	313.15	811.29	.405645
.85	50000	313.15	817.57	.408785
.85	60000	313.15	823.26	.41163
.85	70000	313.15	828.71	.414355
.85	80000	313.15	833.88	.41694
.85	90000	313.15	838.92	.41946
.85	100000	313.15	843.72	.42186
.85	110000	313.15	848.13	.424065
.85	120000	313.15	852.43	.426215
.85	130000	313.15	856.6	.4283
.85	140000	313.15	860.53	.430265
.85	100	323.15	771.69	.385845
.85	5000	323.15	776.54	.38827
.85	10000	323.15	781.03	.390515
.85	15000	323.15	785.43	.392715
.85	20000	323.15	789.58	.39479
.85	25000	323.15	793.55	.396775
.85	30000	323.15	797.32	.39866
.85	35000	323.15	800.76	.40038
.85	40000	323.15	804.25	.402125
.85	50000	323.15	810.73	.405365
.85	60000	323.15	816.73	.408365
.85	70000	323.15	822.34	.41117
.85	80000	323.15	827.58	.41379
.85	90000	323.15	832.59	.416295
.85	100000	323.15	837.32	.41866
.85	110000	323.15	842	.421
.85	120000	323.15	846.37	.423185
.85	130000	323.15	850.57	.425285
.85	140000	323.15	854.67	.427335
.85	100	333.15	761.77	.380885
.85	5000	333.15	766.81	.383405
.85	10000	333.15	771.8	.3859
.85	15000	333.15	776.35	.388175
.85	20000	333.15	780.68	.39034
.85	25000	333.15	784.71	.392355
.85	30000	333.15	788.56	.39428
.85	35000	333.15	792.32	.39616
.85	40000	333.15	795.86	.39793
.85	50000	333.15	802.69	.401345
.85	60000	333.15	808.84	.40442
.85	70000	333.15	814.85	.407425
.85	80000	333.15	820.63	.410315
.85	90000	333.15	825.9	.41295
.85	100000	333.15	831.13	.415565
.85	110000	333.15	835.79	.417895
.85	120000	333.15	840.39	.420195
.85	130000	333.15	844.61	.422305
.85	140000	333.15	848.81	.424405
.85	100	343.15	751.39	.375695
.85	5000	343.15	756.91	.378455
.85	10000	343.15	762.02	.38101
.85	15000	343.15	767	.3835
.85	20000	343.15	771.59	.385795
.85	25000	343.15	776.04	.38802
.85	30000	343.15	780.08	.39004
.85	35000	343.15	784.2	.3921
.85	40000	343.15	788	.394
.85	50000	343.15	795.11	.397555
.85	60000	343.15	801.64	.40082
.85	70000	343.15	807.73	.403865
.85	80000	343.15	813.53	.406765
.85	90000	343.15	818.86	.40943
.85	100000	343.15	824.01	.412005
.85	110000	343.15	828.99	.414495
.85	120000	343.15	833.63	.416815
.85	130000	343.15	838.12	.41906
.85	140000	343.15	842.57	.421285
.85	100	353.15	740.72	.37036
.85	5000	353.15	746.7	.37335
.85	10000	353.15	752.31	.376155
.85	15000	353.15	757.52	.37876
.85	20000	353.15	762.49	.381245
.85	25000	353.15	767.12	.38356
.85	30000	353.15	771.32	.38566
.85	35000	353.15	775.54	.38777
.85	40000	353.15	779.46	.38973
.85	50000	353.15	787.39	.393695
.85	60000	353.15	794.16	.39708
.85	70000	353.15	800.67	.400335
.85	80000	353.15	806.44	.40322
.85	90000	353.15	812.1	.40605
.85	100000	353.15	817.29	.408645
.85	110000	353.15	822.5	.41125
.85	120000	353.15	827.3	.41365
.85	130000	353.15	831.83	.415915
.85	140000	353.15	836.28	.41814
.85	5000	363.15	735.89	.367945
.85	10000	363.15	742.07	.371035
.85	15000	363.15	747.73	.373865
.85	20000	363.15	752.98	.37649
.85	25000	363.15	757.88	.37894
.85	30000	363.15	762.53	.381265
.85	35000	363.15	766.82	.38341
.85	40000	363.15	771.07	.385535
.85	50000	363.15	779.12	.38956
.85	60000	363.15	786.31	.393155
.85	70000	363.15	792.97	.396485
.85	80000	363.15	799.03	.399515
.85	90000	363.15	804.93	.402465
.85	100000	363.15	810.66	.40533
.85	110000	363.15	815.73	.407865
.85	120000	363.15	820.63	.410315
.85	130000	363.15	825.43	.412715
.85	140000	363.15	829.91	.414955
.85	5000	373.15	724.64	.36232
.85	10000	373.15	731.37	.365685
.85	15000	373.15	737.39	.368695
.85	20000	373.15	743.08	.37154
.85	25000	373.15	748.44	.37422
.85	30000	373.15	753.31	.376655
.85	35000	373.15	757.96	.37898
.85	40000	373.15	762.4	.3812
.85	50000	373.15	770.68	.38534
.85	60000	373.15	778.19	.389095
.85	70000	373.15	785.12	.39256
.85	80000	373.15	791.61	.395805
.85	90000	373.15	797.69	.398845
.85	100000	373.15	803.45	.401725
.85	110000	373.15	808.82	.40441
.85	120000	373.15	814.06	.40703
.85	130000	373.15	818.91	.409455
.85	140000	373.15	823.7	.41185
.85	5000	383.15	712.7	.35635
.85	10000	383.15	719.24	.35962
.85	15000	383.15	726.6	.3633
.85	20000	383.15	732.64	.36632
.85	25000	383.15	738.35	.369175
.85	30000	383.15	743.48	.37174
.85	35000	383.15	748.53	.374265
.85	40000	383.15	753.13	.376565
.85	50000	383.15	761.93	.380965
.85	60000	383.15	769.89	.384945
.85	70000	383.15	777.05	.388525
.85	80000	383.15	783.94	.39197
.85	90000	383.15	790.16	.39508
.85	100000	383.15	796.13	.398065
.85	110000	383.15	801.81	.400905
.85	120000	383.15	807.2	.4036
.85	130000	383.15	812.13	.406065
.85	140000	383.15	817.05	.408525
.85	5000	393.15	700.27	.350135
.85	10000	393.15	708.06	.35403
.85	15000	393.15	715.18	.35759
.85	20000	393.15	721.73	.360865
.85	25000	393.15	727.82	.36391
.85	30000	393.15	733.43	.366715
.85	35000	393.15	738.69	.369345
.85	40000	393.15	743.76	.37188
.85	50000	393.15	753.12	.37656
.85	60000	393.15	761.36	.38068
.85	70000	393.15	768.96	.38448
.85	80000	393.15	775.95	.387975
.85	90000	393.15	782.6	.3913
.85	100000	393.15	788.81	.394405
.85	110000	393.15	794.65	.397325
.85	120000	393.15	800.17	.400085
.85	130000	393.15	805.38	.40269
.85	140000	393.15	810.45	.405225
.85	5000	403.15	686.93	.343465
.85	10000	403.15	695.79	.347895
.85	15000	403.15	703.63	.351815
.85	20000	403.15	710.67	.355335
.85	25000	403.15	717.03	.358515
.85	30000	403.15	723.15	.361575
.85	35000	403.15	728.6	.3643
.85	40000	403.15	733.95	.366975
.85	50000	403.15	744.41	.372205
.85	60000	403.15	753.05	.376525
.85	70000	403.15	761.03	.380515
.85	80000	403.15	768.04	.38402
.85	90000	403.15	774.92	.38746
.85	100000	403.15	781.27	.390635
.85	110000	403.15	787.31	.393655
.85	120000	403.15	793.06	.39653
.85	130000	403.15	798.56	.39928
.85	140000	403.15	803.94	.40197
1	100	313.15	767.67	.383835
1	5000	313.15	772.3	.38615
1	10000	313.15	776.83	.388415
1	15000	313.15	781.04	.39052
1	20000	313.15	785.09	.392545
1	25000	313.15	788.94	.39447
1	30000	313.15	792.51	.396255
1	35000	313.15	796.05	.398025
1	40000	313.15	799.39	.399695
1	50000	313.15	805.89	.402945
1	60000	313.15	811.8	.4059
1	70000	313.15	817.44	.40872
1	80000	313.15	822.71	.411355
1	90000	313.15	827.67	.413835
1	100000	313.15	832.64	.41632
1	110000	313.15	837.15	.418575
1	120000	313.15	841.57	.420785
1	130000	313.15	845.79	.422895
1	140000	313.15	849.83	.424915
1	100	323.15	758.87	.379435
1	5000	323.15	763.96	.38198
1	10000	323.15	768.84	.38442
1	15000	323.15	773.34	.38667
1	20000	323.15	777.63	.388815
1	25000	323.15	781.69	.390845
1	30000	323.15	785.6	.3928
1	35000	323.15	789.17	.394585
1	40000	323.15	792.74	.39637
1	50000	323.15	799.4	.3997
1	60000	323.15	805.57	.402785
1	70000	323.15	811.34	.40567
1	80000	323.15	816.78	.40839
1	90000	323.15	822.03	.411015
1	100000	323.15	826.88	.41344
1	110000	323.15	831.63	.415815
1	120000	323.15	836.11	.418055
1	130000	323.15	840.39	.420195
1	140000	323.15	844.6	.4223
1	100	333.15	749.24	.37462
1	5000	333.15	754.45	.377225
1	10000	333.15	759.66	.37983
1	15000	333.15	764.42	.38221
1	20000	333.15	768.95	.384475
1	25000	333.15	773.18	.38659
1	30000	333.15	777.21	.388605
1	35000	333.15	781.18	.39059
1	40000	333.15	784.88	.39244
1	50000	333.15	791.92	.39596
1	60000	333.15	798.25	.399125
1	70000	333.15	804.32	.40216
1	80000	333.15	810.15	.405075
1	90000	333.15	815.49	.407745
1	100000	333.15	820.8	.4104
1	110000	333.15	825.59	.412795
1	120000	333.15	830.23	.415115
1	130000	333.15	834.5	.41725
1	140000	333.15	838.74	.41937
1	100	343.15	738.88	.36944
1	5000	343.15	744.75	.372375
1	10000	343.15	750.17	.375085
1	15000	343.15	755.4	.3777
1	20000	343.15	760.17	.380085
1	25000	343.15	764.81	.382405
1	30000	343.15	769.03	.384515
1	35000	343.15	773.28	.38664
1	40000	343.15	777.23	.388615
1	50000	343.15	784.53	.392265
1	60000	343.15	791.22	.39561
1	70000	343.15	797.48	.39874
1	80000	343.15	803.44	.40172
1	90000	343.15	808.87	.404435
1	100000	343.15	814.1	.40705
1	110000	343.15	819.16	.40958
1	120000	343.15	823.87	.411935
1	130000	343.15	828.44	.41422
1	140000	343.15	832.84	.41642
1	100	353.15	728.44	.36422
1	5000	353.15	734.66	.36733
1	10000	353.15	740.52	.37026
1	15000	353.15	745.99	.372995
1	20000	353.15	751.21	.375605
1	25000	353.15	756.02	.37801
1	30000	353.15	760.43	.380215
1	35000	353.15	764.79	.382395
1	40000	353.15	768.87	.384435
1	50000	353.15	777.01	.388505
1	60000	353.15	783.94	.39197
1	70000	353.15	790.65	.395325
1	80000	353.15	796.56	.39828
1	90000	353.15	802.3	.40115
1	100000	353.15	807.6	.4038
1	110000	353.15	812.87	.406435
1	120000	353.15	817.76	.40888
1	130000	353.15	822.37	.411185
1	140000	353.15	826.85	.413425
1	5000	363.15	723.93	.361965
1	10000	363.15	730.44	.36522
1	15000	363.15	736.42	.36821
1	20000	363.15	741.95	.370975
1	25000	363.15	747.05	.373525
1	30000	363.15	751.95	.375975
1	35000	363.15	756.37	.378185
1	40000	363.15	760.76	.38038
1	50000	363.15	769.06	.38453
1	60000	363.15	776.43	.388215
1	70000	363.15	783.33	.391665
1	80000	363.15	789.52	.39476
1	90000	363.15	795.58	.39779
1	100000	363.15	801.38	.40069
1	110000	363.15	806.5	.40325
1	120000	363.15	811.57	.405785
1	130000	363.15	816.39	.408195
1	140000	363.15	820.9	.41045
1	5000	373.15	712.57	.356285
1	10000	373.15	719.75	.359875
1	15000	373.15	726.13	.363065
1	20000	373.15	732.08	.36604
1	25000	373.15	737.65	.368825
1	30000	373.15	742.73	.371365
1	35000	373.15	747.59	.373795
1	40000	373.15	752.29	.376145
1	50000	373.15	760.75	.380375
1	60000	373.15	768.5	.38425
1	70000	373.15	775.82	.38791
1	80000	373.15	782.24	.39112
1	90000	373.15	788.49	.394245
1	100000	373.15	794.34	.39717
1	110000	373.15	799.85	.399925
1	120000	373.15	805.17	.402585
1	130000	373.15	810.06	.40503
1	140000	373.15	814.94	.40747
1	5000	383.15	700.32	.35016
1	10000	383.15	708.06	.35403
1	15000	383.15	715.03	.357515
1	20000	383.15	721.43	.360715
1	25000	383.15	727.35	.363675
1	30000	383.15	732.77	.366385
1	35000	383.15	737.95	.368975
1	40000	383.15	742.76	.37138
1	50000	383.15	751.85	.375925
1	60000	383.15	760.06	.38003
1	70000	383.15	767.53	.383765
1	80000	383.15	774.49	.387245
1	90000	383.15	780.94	.39047
1	100000	383.15	786.9	.39345
1	110000	383.15	792.77	.396385
1	120000	383.15	798.27	.399135
1	130000	383.15	803.3	.40165
1	140000	383.15	808.26	.40413
1	5000	393.15	687.82	.34391
1	10000	393.15	696.15	.348075
1	15000	393.15	703.77	.351885
1	20000	393.15	710.73	.355365
1	25000	393.15	717.07	.358535
1	30000	393.15	722.91	.361455
1	35000	393.15	728.4	.3642
1	40000	393.15	733.66	.36683
1	50000	393.15	743.39	.371695
1	60000	393.15	751.87	.375935
1	70000	393.15	759.71	.379855
1	80000	393.15	766.86	.38343
1	90000	393.15	773.67	.386835
1	100000	393.15	779.96	.38998
1	110000	393.15	785.9	.39295
1	120000	393.15	791.54	.39577
1	130000	393.15	796.8	.3984
1	140000	393.15	801.97	.400985
1	5000	403.15	674.03	.337015
1	10000	403.15	683.54	.34177
1	15000	403.15	691.9	.34595
1	20000	403.15	699.4	.3497
1	25000	403.15	706.26	.35313
1	30000	403.15	712.66	.35633
1	35000	403.15	718.38	.35919
1	40000	403.15	724.01	.362005
1	50000	403.15	734.72	.36736
1	60000	403.15	743.58	.37179
1	70000	403.15	751.89	.375945
1	80000	403.15	759.17	.379585
1	90000	403.15	766.2	.3831
1	100000	403.15	772.7	.38635
1	110000	403.15	778.85	.389425
1	120000	403.15	784.7	.39235
1	130000	403.15	790.2	.3951
1	140000	403.15	795.51	.397755

System: 2-propanol + water; phases: Liquid
Property: Molar heat capacity at constant pressure, J/K/mol (Liquid); method: Flow calorimetry
Mole fraction of 2-propanol	Pressure, kPa	Temperature, K	Molar heat capacity at constant pressure, J/K/mol	uncertainty
0	100	313.15	75.27	1.5054
.2	100	313.15	94.11	1.8822
.4	100	313.15	105.76	2.1152
.6	100	313.15	117.69	2.3538
.8	100	313.15	136.47	2.7294
1	100	313.15	168.4	3.368
0	100	323.15	75.31	1.5062
.2	100	323.15	93.28	1.8656
.4	100	323.15	105.76	2.1152
.6	100	323.15	119.48	2.3896
.8	100	323.15	140.56	2.8112
1	100	323.15	176.65	3.533
0	100	333.15	75.37	1.5074
.2	100	333.15	92.56	1.8512
.4	100	333.15	105.83	2.1166
.6	100	333.15	121.19	2.4238
.8	100	333.15	144.43	2.8886
1	100	333.15	184.94	3.6988
0	100	343.15	75.46	1.5092
.2	100	343.15	91.95	1.839
.4	100	343.15	105.96	2.1192
.6	100	343.15	122.82	2.4564
.8	100	343.15	148.09	2.9618
1	100	343.15	193.27	3.8654
0	100	353.15	75.58	1.5116
.2	100	353.15	91.46	1.8292
.4	100	353.15	106.14	2.1228
.6	100	353.15	124.38	2.4876
.8	100	353.15	151.53	3.0306
1	100	353.15	201.64	4.0328
0	20000	313.15	74.44	1.4888
.2	20000	313.15	93.32	1.8664
.4	20000	313.15	105.43	2.1086
.6	20000	313.15	116.55	2.331
.8	20000	313.15	134.22	2.6844
1	20000	313.15	165.68	3.3136
0	20000	323.15	74.53	1.4906
.2	20000	323.15	92.46	1.8492
.4	20000	323.15	105.4	2.108
.6	20000	323.15	118.15	2.363
.8	20000	323.15	137.75	2.755
1	20000	323.15	173.69	3.4738
0	20000	333.15	74.62	1.4924
.2	20000	333.15	91.77	1.8354
.4	20000	333.15	105.43	2.1086
.6	20000	333.15	119.73	2.3946
.8	20000	333.15	141.2	2.824
1	20000	333.15	181.4	3.628
0	20000	343.15	74.72	1.4944
.2	20000	343.15	91.24	1.8248
.4	20000	343.15	105.53	2.1106
.6	20000	343.15	121.29	2.4258
.8	20000	343.15	144.58	2.8916
1	20000	343.15	188.79	3.7758
0	20000	353.15	74.84	1.4968
.2	20000	353.15	90.89	1.8178
.4	20000	353.15	105.75	2.115
.6	20000	353.15	122.82	2.4564
.8	20000	353.15	147.88	2.9576
1	20000	353.15	195.88	3.9176
0	20000	363.15	74.98	1.4996
.2	20000	363.15	90.69	1.8138
.4	20000	363.15	106.09	2.1218
.6	20000	363.15	124.34	2.4868
.8	20000	363.15	151.1	3.022
1	20000	363.15	202.65	4.053
0	20000	373.15	75.14	1.5028
.2	20000	373.15	90.67	1.8134
.4	20000	373.15	106.61	2.1322
.6	20000	373.15	125.83	2.5166
.8	20000	373.15	154.25	3.085
1	20000	373.15	209.1	4.182
0	20000	383.15	75.34	1.5068
.2	20000	383.15	90.81	1.8162
.4	20000	383.15	107.32	2.1464
.6	20000	383.15	127.31	2.5462
.8	20000	383.15	157.32	3.1464
1	20000	383.15	215.25	4.305
0	20000	393.15	75.57	1.5114
.2	20000	393.15	91.12	1.8224
.4	20000	393.15	108.25	2.165
.6	20000	393.15	128.77	2.5754
.8	20000	393.15	160.31	3.2062
1	20000	393.15	221.08	4.4216
0	40000	313.15	73.71	1.4742
.2	40000	313.15	92.49	1.8498
.4	40000	313.15	104.65	2.093
.6	40000	313.15	115.84	2.3168
.8	40000	313.15	133.18	2.6636
1	40000	313.15	163.96	3.2792
0	40000	323.15	73.83	1.4766
.2	40000	323.15	91.68	1.8336
.4	40000	323.15	104.61	2.0922
.6	40000	323.15	117.4	2.348
.8	40000	323.15	136.58	2.7316
1	40000	323.15	171.65	3.433
0	40000	333.15	73.94	1.4788
.2	40000	333.15	91.01	1.8202
.4	40000	333.15	104.66	2.0932
.6	40000	333.15	118.88	2.3776
.8	40000	333.15	139.85	2.797
1	40000	333.15	178.99	3.5798
0	40000	343.15	74.05	1.481
.2	40000	343.15	90.46	1.8092
.4	40000	343.15	104.79	2.0958
.6	40000	343.15	120.28	2.4056
.8	40000	343.15	142.98	2.8596
1	40000	343.15	185.96	3.7192
0	40000	353.15	74.17	1.4834
.2	40000	353.15	90.06	1.8012
.4	40000	353.15	105.02	2.1004
.6	40000	353.15	121.6	2.432
.8	40000	353.15	145.96	2.9192
1	40000	353.15	192.58	3.8516
0	40000	363.15	74.3	1.486
.2	40000	363.15	89.79	1.7958
.4	40000	363.15	105.34	2.1068
.6	40000	363.15	122.85	2.457
.8	40000	363.15	148.82	2.9764
1	40000	363.15	198.84	3.9768
0	40000	373.15	74.44	1.4888
.2	40000	373.15	89.65	1.793
.4	40000	373.15	105.75	2.115
.6	40000	373.15	124.01	2.4802
.8	40000	373.15	151.53	3.0306
1	40000	373.15	204.73	4.0946
0	40000	383.15	74.61	1.4922
.2	40000	383.15	89.64	1.7928
.4	40000	383.15	106.25	2.125
.6	40000	383.15	125.1	2.502
.8	40000	383.15	154.1	3.082
1	40000	383.15	210.27	4.2054
0	40000	393.15	74.81	1.4962
.2	40000	393.15	89.77	1.7954
.4	40000	393.15	106.84	2.1368
.6	40000	393.15	126.11	2.5222
.8	40000	393.15	156.54	3.1308
1	40000	393.15	215.45	4.309
