Measured thermophysical data. Isobaric vapor-liquid equilibrium for ternary system of sec-butyl alcohol + sec-butyl acetate + N,N- dimethyl acetamide at 101.3 kPa
Source: Fluid Phase Equilib., 2015, 10.1016/j.fluid.2015.03.013
Compound 1: sec-butyl alcohol, C4H10O, purity 99.9%
Compound 2: sec-butyl acetate, C6H12O2, purity 99.7%
Compound 3: N,N-dimethylacetamide, C4H9NO, purity 99.9%

System: sec-butyl alcohol + N,N-dimethylacetamide; phases: Liquid, Gas
Fixed: Pressure, kPa = 101.3
Property: Boiling temperature at pressure P, K (Liquid); method: Ebulliometric method (Recirculating still)
Mole fraction of sec-butyl alcohol	Boiling temperature at pressure P, K	uncertainty
.938	374.82	.02
.897	375.94	.02
.843	377.93	.02
.801	379.3	.02
.776	380.51	.02
.723	382.56	.02
.685	384.31	.02
.63	386.91	.02
.585	389.25	.02
.553	391.06	.02
.534	392.3	.02
.513	393.84	.02
.454	397.31	.02
.432	399.15	.02
.405	401.35	.02
.38	403.27	.02
.336	406.73	.02
.306	409.3	.02
.263	412.88	.02
.221	416.49	.02
.189	418.83	.02
.165	421.25	.02
.148	423.1	.02
.109	427.42	.02
.092	429.22	.02
.076	430.82	.02
.052	433.35	.02
.037	435.15	.02
.019	436.9	.02

System: sec-butyl alcohol + N,N-dimethylacetamide; phases: Gas, Liquid
Fixed: Pressure, kPa = 101.3
Property: Mole fraction of sec-butyl alcohol (Gas); method: Chromatography
Mole fraction of sec-butyl alcohol	Mole fraction of sec-butyl alcohol	uncertainty
.938	.995	.004
.897	.991	.004
.843	.985	.004
.801	.979	.004
.776	.974	.004
.723	.964	.004
.685	.954	.004
.63	.938	.004
.585	.923	.004
.553	.911	.004
.534	.902	.004
.513	.892	.004
.454	.858	.004
.432	.841	.004
.405	.819	.004
.38	.794	.004
.336	.749	.004
.306	.714	.004
.263	.657	.004
.221	.595	.004
.189	.542	.004
.165	.493	.004
.148	.457	.004
.109	.361	.004
.092	.313	.004
.076	.267	.004
.052	.193	.004
.037	.143	.004
.019	.076	.004

System: sec-butyl acetate + N,N-dimethylacetamide; phases: Liquid, Gas
Fixed: Pressure, kPa = 101.3
Property: Boiling temperature at pressure P, K (Liquid); method: Ebulliometric method (Recirculating still)
Mole fraction of sec-butyl acetate	Boiling temperature at pressure P, K	uncertainty
.959	386.1	.02
.888	388.22	.02
.803	390.2	.02
.782	390.66	.02
.737	391.6	.02
.688	392.75	.02
.627	394.34	.02
.571	396.13	.02
.506	398.33	.02
.476	398.91	.02
.439	399.93	.02
.39	401.81	.02
.356	402.65	.02
.324	403.67	.02
.29	406.05	.02
.24	408.4	.02
.198	411.78	.02
.175	414.45	.02
.142	417.08	.02
.109	420.67	.02
.079	424.33	.02
.062	427.51	.02
.048	430.07	.02
.038	431.54	.02
.023	433.57	.02
.014	435.66	.02

System: sec-butyl acetate + N,N-dimethylacetamide; phases: Gas, Liquid
Fixed: Pressure, kPa = 101.3
Property: Mole fraction of sec-butyl acetate (Gas); method: Chromatography
Mole fraction of sec-butyl acetate	Mole fraction of sec-butyl acetate	uncertainty
.959	.988	.004
.888	.968	.004
.803	.944	.004
.782	.938	.004
.737	.923	.004
.688	.905	.004
.627	.882	.004
.571	.861	.004
.506	.826	.004
.476	.811	.004
.439	.79	.004
.39	.761	.004
.356	.734	.004
.324	.71	.004
.29	.68	.004
.24	.623	.004
.198	.566	.004
.175	.531	.004
.142	.474	.004
.109	.41	.004
.079	.338	.004
.062	.283	.004
.048	.234	.004
.038	.195	.004
.023	.133	.004
.014	.089	.004

System: sec-butyl alcohol + sec-butyl acetate + N,N-dimethylacetamide; phases: Liquid, Gas
Fixed: Pressure, kPa = 101.3
Property: Mole fraction of sec-butyl acetate (Liquid); method: Chromatography
Property: Mole fraction of sec-butyl alcohol (Gas); method: Chromatography
Property: Mole fraction of sec-butyl acetate (Gas); method: Chromatography
Temperature, K	Mole fraction of sec-butyl alcohol	Mole fraction of sec-butyl acetate	uncertainty	Mole fraction of sec-butyl alcohol	uncertainty	Mole fraction of sec-butyl acetate	uncertainty
400.35	.027	.383	.004	.051	.004	.742	.004
399.21	.115	.291	.004	.202	.004	.593	.004
398.4	.142	.275	.004	.244	.004	.553	.004
397.88	.181	.238	.004	.313	.004	.495	.004
397.94	.203	.212	.004	.356	.004	.449	.004
398.15	.226	.184	.004	.398	.004	.404	.004
397.9	.253	.16	.004	.449	.004	.365	.004
398.75	.271	.128	.004	.497	.004	.309	.004
399.67	.296	.092	.004	.556	.004	.246	.004
400.25	.32	.066	.004	.611	.004	.186	.004
401.08	.323	.055	.004	.627	.004	.159	.004
400	.046	.363	.004	.087	.004	.716	.004
399.55	.075	.334	.004	.135	.004	.647	.004
398.97	.098	.318	.004	.167	.004	.621	.004
