Measured thermophysical data. Excess molar volumes, excess molar enthalpies and refractive index deviations for binary mixtures of propan-1-ol, butan-1-ol and pentan-1-ol with  2,2,4-trimethylpentane at 298.15 K
Source: Fluid Phase Equilib., 2012, 10.1016/j.fluid.2012.06.031
Compound 1: 1-propanol, C3H8O, purity 99.9%
Compound 2: 1-butanol, C4H10O, purity 99.7%
Compound 3: 1-pentanol, C5H12O, purity 99%
Compound 4: 2,2,4-trimethylpentane, C8H18, purity 99%

System: 1-propanol; phases: Liquid
Fixed: Pressure, kPa = 101.325
Property: Mass density, kg/m3 (Liquid); method: Pycnometric method
Temperature, K	Mass density, kg/m3	uncertainty
298.15	799.6	.11

System: 1-propanol; phases: Liquid
Fixed: Pressure, kPa = 101.325
Property: Refractive index (Na D-line) (Liquid); method: Standard Abbe refractometry
Temperature, K	Refractive index (Na D-line)	uncertainty
298.15	1.3832	.00009

System: 1-butanol; phases: Liquid
Fixed: Pressure, kPa = 101.325
Property: Mass density, kg/m3 (Liquid); method: Pycnometric method
Temperature, K	Mass density, kg/m3	uncertainty
298.15	805.8	.11

System: 1-butanol; phases: Liquid
Fixed: Pressure, kPa = 101.325
Property: Refractive index (Na D-line) (Liquid); method: Standard Abbe refractometry
Temperature, K	Refractive index (Na D-line)	uncertainty
298.15	1.3974	.00009

System: 1-pentanol; phases: Liquid
Fixed: Pressure, kPa = 101.325
Property: Mass density, kg/m3 (Liquid); method: Pycnometric method
Temperature, K	Mass density, kg/m3	uncertainty
298.15	810.8	.11

System: 1-pentanol; phases: Liquid
Fixed: Pressure, kPa = 101.325
Property: Refractive index (Na D-line) (Liquid); method: Standard Abbe refractometry
Temperature, K	Refractive index (Na D-line)	uncertainty
298.15	1.4078	.00009

System: 2,2,4-trimethylpentane; phases: Liquid
Fixed: Pressure, kPa = 101.325
Property: Mass density, kg/m3 (Liquid); method: Pycnometric method
Temperature, K	Mass density, kg/m3	uncertainty
298.15	687.9	.11

System: 2,2,4-trimethylpentane; phases: Liquid
Fixed: Pressure, kPa = 101.325
Property: Refractive index (Na D-line) (Liquid); method: Standard Abbe refractometry
Temperature, K	Refractive index (Na D-line)	uncertainty
298.15	1.3889	.00009

System: 1-propanol + 2,2,4-trimethylpentane; phases: Liquid
Fixed: Temperature, K = 298.15
Fixed: Pressure, kPa = 101
Property: Mass density, kg/m3 (Liquid); method: Pycnometric method
Mole fraction of 1-propanol	Mass density, kg/m3	uncertainty
.0502	689.82	.11
.1002	692.19	.11
.1504	694.9	.11
.1999	697.87	.11
.3	704.65	.11
.3999	712.46	.11
.5	721.44	.11
.6001	731.85	.11
.7	744.14	.11
.7999	758.95	.11
.85	767.56	.11
.9	777.1	.11
.9501	787.71	.11

System: 1-propanol + 2,2,4-trimethylpentane; phases: Liquid
Fixed: Temperature, K = 298.15
Fixed: Pressure, kPa = 101
Property: Refractive index (Na D-line) (Liquid); method: Standard Abbe refractometry
Mole fraction of 1-propanol	Refractive index (Na D-line)	uncertainty
.0502	1.3885	.00009
.1002	1.38816	.00009
.1504	1.38785	.00009
.1999	1.38759	.00009
.3	1.38712	.00009
.3999	1.38669	.00009
.5	1.38627	.00009
.6001	1.3858	.00009
.7	1.38526	.00009
.7999	1.38462	.00009
.85	1.38426	.00009
.9	1.38387	.00009
.9501	1.38345	.00009

System: 1-propanol + 2,2,4-trimethylpentane; phases: Liquid
Fixed: Temperature, K = 298.15
Fixed: Pressure, kPa = 101
Property: Excess molar enthalpy (molar enthalpy of mixing), kJ/mol (Liquid); method: solution calorimetry
Mole fraction of 1-propanol	Excess molar enthalpy (molar enthalpy of mixing), kJ/mol	uncertainty
.0516	.4077	.0021
.1	.525	.0021
.15	.5598	.0021
.2001	.6094	.0021
.3001	.6544	.0021
.4001	.6533	.0021
.5002	.6025	.0021
.6001	.5251	.0021
.7048	.4056	.0021
.8	.2967	.0021
.85	.2348	.0021
.8998	.1622	.0021
.9499	.0854	.0021

System: 1-butanol + 2,2,4-trimethylpentane; phases: Liquid
Fixed: Temperature, K = 298.15
Fixed: Pressure, kPa = 101
Property: Mass density, kg/m3 (Liquid); method: Pycnometric method
Mole fraction of 1-butanol	Mass density, kg/m3	uncertainty
.0501	690.95	.11
.1001	694.28	.11
.1501	697.81	.11
.2	701.56	.11
.3001	709.77	.11
.3999	718.98	.11
.5	729.4	.11
.5999	741.16	.11
.6999	754.51	.11
.8	769.68	.11
.85	778.03	.11
.9	786.94	.11
.95	796.46	.11

System: 1-butanol + 2,2,4-trimethylpentane; phases: Liquid
Fixed: Temperature, K = 298.15
Fixed: Pressure, kPa = 101
Property: Refractive index (Na D-line) (Liquid); method: Standard Abbe refractometry
Mole fraction of 1-butanol	Refractive index (Na D-line)	uncertainty
.0501	1.38897	.00009
.1001	1.38909	.00009
.1501	1.38925	.00009
.2	1.38946	.00009
.3001	1.38999	.00009
.3999	1.39067	.00009
.5	1.39149	.00009
.5999	1.39244	.00009
.6999	1.3935	.00009
.8	1.39466	.00009
.85	1.39527	.00009
.9	1.3959	.00009
.95	1.39654	.00009

System: 1-butanol + 2,2,4-trimethylpentane; phases: Liquid
Fixed: Temperature, K = 298.15
Fixed: Pressure, kPa = 101
Property: Excess molar enthalpy (molar enthalpy of mixing), kJ/mol (Liquid); method: solution calorimetry
Mole fraction of 1-butanol	Excess molar enthalpy (molar enthalpy of mixing), kJ/mol	uncertainty
.05	.3964	.0021
.1	.5023	.0021
.1502	.5697	.0021
.2	.5874	.0021
.2995	.6228	.0021
.4	.6287	.0021
.5001	.5938	.0021
.6002	.5157	.0021
.7	.4052	.0021
.8	.2871	.0021
.8499	.2226	.0021
.9	.1502	.0021
.9499	.0788	.0021

System: 1-pentanol + 2,2,4-trimethylpentane; phases: Liquid
Fixed: Temperature, K = 298.15
Fixed: Pressure, kPa = 101
Property: Mass density, kg/m3 (Liquid); method: Pycnometric method
Mole fraction of 1-pentanol	Mass density, kg/m3	uncertainty
.0501	691.14	.11
.1	695.2	.11
.1499	699.5	.11
.2017	704.19	.11
.3001	713.84	.11
.4	724.6	.11
.5001	736.36	.11
.6001	749.12	.11
.7	762.91	.11
.7999	777.72	.11
.85	785.54	.11
.9	793.63	.11
.95	801.98	.11

System: 1-pentanol + 2,2,4-trimethylpentane; phases: Liquid
Fixed: Temperature, K = 298.15
Fixed: Pressure, kPa = 101
Property: Refractive index (Na D-line) (Liquid); method: Standard Abbe refractometry
Mole fraction of 1-pentanol	Refractive index (Na D-line)	uncertainty
.0501	1.38936	.00009
.1	1.38993	.00009
.1499	1.39059	.00009
.2017	1.39135	.00009
.3001	1.39297	.00009
.4	1.39478	.00009
.5001	1.3967	.00009
.6001	1.3987	.00009
.7	1.40077	.00009
.7999	1.40293	.00009
.85	1.40407	.00009
.9	1.40525	.00009
.95	1.40649	.00009

System: 1-pentanol + 2,2,4-trimethylpentane; phases: Liquid
Fixed: Temperature, K = 298.15
Fixed: Pressure, kPa = 101
Property: Excess molar enthalpy (molar enthalpy of mixing), kJ/mol (Liquid); method: solution calorimetry
Mole fraction of 1-pentanol	Excess molar enthalpy (molar enthalpy of mixing), kJ/mol	uncertainty
.05	.3764	.0021
.0998	.4747	.0021
.15	.5313	.0021
.1996	.5546	.0021
.2997	.6019	.0021
.3999	.5912	.0021
.4998	.5511	.0021
.5999	.4561	.0021
.7	.3806	.0021
.8	.2636	.0021
.85	.1974	.0021
.9	.1342	.0021
.95	.0627	.0021
