Measured thermophysical data. Interfacial tension and adsorption in the binary system ethanol and carbon dioxide: Experiments, molecular simulation and density gradient theory
Source: Fluid Phase Equilib., 2016, 10.1016/j.fluid.2016.08.007
Compound 1: carbon dioxide, CO2, purity 99.995%
Compound 2: ethanol, C2H6O, purity 99.9%

System: ethanol + carbon dioxide; phases: Liquid mixture 1, Liquid mixture 2
Property: Interfacial tension, N/m (Liquid mixture 1); method: Pendant drop shape
Pressure, kPa	Temperature, K	Interfacial tension, N/m	uncertainty
518	303.2	.01978	
1024	303.2	.01873	
2046	303.2	.01617	
3107	303.2	.01335	
4019	303.2	.01075	
4979	303.2	.00776	
6022	303.2	.00369	
517	313.2	.01943	
1053	313.2	.01842	
2024	313.2	.01591	
3041	313.2	.01411	
4027	313.2	.01133	
5105	313.2	.00871	
6036	313.2	.00623	
521	323.2	.01866	
1019	323.2	.0176	
2019	323.2	.01552	
3020	323.2	.01375	
4094	323.2	.01154	
5125	323.2	.0094	
5976	323.2	.00754	
515	333.2	.01805	
1005	333.2	.01725	
1993	333.2	.01529	
3029	333.2	.01347	
3996	333.2	.01174	
5078	333.2	.00985	
5984	333.2	.00816	
572	343.2	.01698	
1079	343.2	.01623	
2049	343.2	.01468	
3026	343.2	.01311	
4122	343.2	.01143	
5067	343.2	.00993	
6049	343.2	.00833	
500	353.2	.0163	
1009	353.2	.01563	
2049	353.2	.01415	
2997	353.2	.01275	
3999	353.2	.01132	
5052	353.2	.00985	
6128	353.2	.00829	
509	363.2	.01574	
994	363.2	.01482	
1973	363.2	.01361	
3043	363.2	.01222	
4024	363.2	.01094	
5047	363.2	.00963	
5775	363.2	.00867	
514	373.1	.01461	
1025	373.1	.0139	
2050	373.1	.01284	
2983	373.1	.01169	
4051	373.1	.01041	
5170	373.1	.00905	
5818	373.1	.00835	
