Measured thermophysical data. Thermophysical behaviour of the mixture (+-)-3,7-dimethyl-1,6-octadien-3-ol with ethanol
Source: Fluid Phase Equilib., 2011, 10.1016/j.fluid.2011.06.011
Compound 1: (.+-.)-linalool, C10H18O, purity 98.1%
Compound 2: ethanol, C2H6O, purity 99.9%

System: (.+-.)-linalool; phases: Liquid
Fixed: Pressure, kPa = 101.325
Property: Mass density, kg/m3 (Liquid); method: Vibrating tube method
Temperature, K	Mass density, kg/m3	uncertainty
283.15	869.39	.04
298.15	857	.04
313.15	844.29	.04
328.15	831.31	.04

System: (.+-.)-linalool; phases: Liquid
Fixed: Pressure, kPa = 101.325
Property: Speed of sound, m/s (Liquid); method: Sing-around technique in a fixed-path interferometer
Temperature, K	Speed of sound, m/s	uncertainty
283.15	1370.3	.2
298.15	1313.1	.2
313.15	1260.8	.2
328.15	1207.6	.2

System: (.+-.)-linalool; phases: Liquid
Fixed: Pressure, kPa = 101.325
Property: Refractive index (Na D-line) (Liquid); method: Standard Abbe refractometry
Temperature, K	Refractive index (Na D-line)	uncertainty
283.15	1.46659	.00004
298.15	1.45946	.00004
313.15	1.45215	.00004
328.15	1.44473	.00004
283.15	1.4666	.00004

System: (.+-.)-linalool; phases: Liquid
Property: Speed of sound, m/s (Liquid); method: Sing-around technique in a fixed-path interferometer
Temperature, K	Pressure, kPa	Speed of sound, m/s	uncertainty
283.15	101	1370.6	.2
298.15	101	1315.1	.2

System: (.+-.)-linalool; phases: Liquid
Property: Mass density, kg/m3 (Liquid); method: Vibrating tube method
Pressure, kPa	Temperature, K	Mass density, kg/m3	uncertainty
20000	283.15	880.8	.5
25000	283.15	883.7	.5
30000	283.15	886.1	.5
35000	283.15	888.9	.5
40000	283.15	891.4	.5
20000	298.15	869.4	.5
25000	298.15	872.3	.5
30000	298.15	875.2	.5
35000	298.15	877.9	.5
40000	298.15	880.6	.5
20000	313.15	857.6	.5
25000	313.15	860.9	.5
30000	313.15	863.9	.5
35000	313.15	866.8	.5
40000	313.15	869.7	.5
20000	328.15	846	.5
25000	328.15	849.3	.5
30000	328.15	852.6	.5
35000	328.15	855.7	.5
40000	328.15	858.8	.5

System: ethanol; phases: Liquid
Fixed: Pressure, kPa = 101.325
Property: Mass density, kg/m3 (Liquid); method: Vibrating tube method
Temperature, K	Mass density, kg/m3	uncertainty
283.15	798.27	.04
298.15	785.45	.04
313.15	772.39	.04
328.15	758.93	.04

System: ethanol; phases: Liquid
Fixed: Pressure, kPa = 101.325
Property: Speed of sound, m/s (Liquid); method: Sing-around technique in a fixed-path interferometer
Temperature, K	Speed of sound, m/s	uncertainty
283.15	1196.2	.2
298.15	1146.2	.2
313.15	1096.7	.2
328.15	1047	.2

System: ethanol; phases: Liquid
Fixed: Pressure, kPa = 101.325
Property: Refractive index (Na D-line) (Liquid); method: Standard Abbe refractometry
Temperature, K	Refractive index (Na D-line)	uncertainty
283.15	1.36546	.00004
298.15	1.35984	.00004
313.15	1.35409	.00004
328.15	1.34827	.00004

System: ethanol; phases: Liquid
Property: Mass density, kg/m3 (Liquid); method: Vibrating tube method
Temperature, K	Pressure, kPa	Mass density, kg/m3	uncertainty
283.15	101	798.28	.04
298.15	101	785.46	.04

System: ethanol; phases: Liquid
Property: Mass density, kg/m3 (Liquid); method: Vibrating tube method
Pressure, kPa	Temperature, K	Mass density, kg/m3	uncertainty
20000	283.15	812.8	.5
25000	283.15	816.5	.5
30000	283.15	819.8	.5
35000	283.15	823	.5
40000	283.15	826.1	.5
20000	298.15	801.5	.5
25000	298.15	805.3	.5
30000	298.15	808.8	.5
35000	298.15	812.2	.5
40000	298.15	815.5	.5
20000	313.15	789.8	.5
25000	313.15	794	.5
30000	313.15	797.4	.5
35000	313.15	801	.5
40000	313.15	804.8	.5
20000	328.15	777.8	.5
25000	328.15	782.2	.5
30000	328.15	786.3	.5
35000	328.15	790	.5
40000	328.15	793.9	.5

System: ethanol + (.+-.)-linalool; phases: Liquid
Fixed: Pressure, kPa = 101
Property: Mass density, kg/m3 (Liquid); method: Vibrating tube method
Mole fraction of (.+-.)-linalool	Temperature, K	Mass density, kg/m3	uncertainty
0	283.15	798.28	.04
.0506	283.15	809.66	.04
.1008	283.15	819.09	.04
.1969	283.15	833.37	.04
.2895	283.15	843.35	.04
.3957	283.15	851.69	.04
.4803	283.15	856.48	.04
.593	283.15	861.02	.04
.6838	283.15	863.65	.04
.8438	283.15	866.82	.04
.8941	283.15	867.74	.04
.9286	283.15	868.3	.04
1	283.15	869.39	.04
0	298.15	785.46	.04
.0506	298.15	797.07	.04
.1008	298.15	806.76	.04
.1969	298.15	821.08	.04
.2895	298.15	831.1	.04
.3862	298.15	838.62	.04
.4803	298.15	844.09	.04
.593	298.15	848.66	.04
.6838	298.15	851.31	.04
.8438	298.15	854.5	.04
.8941	298.15	855.41	.04
.9286	298.15	855.96	.04
1	298.15	857	.04
0	313.15	772.39	.04
.0506	313.15	784.31	.04
.1008	313.15	794.24	.04
.1969	313.15	808.41	.04
.2884	313.15	818.41	.04
.3957	313.15	826.66	.04
.4803	313.15	831.36	.04
.593	313.15	835.94	.04
.6838	313.15	838.63	.04
.8438	313.15	841.86	.04
.8941	313.15	842.75	.04
.9286	313.15	843.29	.04
1	313.15	844.29	.04
0	328.15	758.93	.04
.0506	328.15	770.91	.04
.1008	328.15	780.72	.04
.1969	328.15	795.22	.04
.2884	328.15	805.21	.04
.3957	328.15	813.44	.04
.4803	328.15	818.17	.04
.593	328.15	822.82	.04
.6838	328.15	825.57	.04
.8438	328.15	828.96	.04
.8941	328.15	829.77	.04
.9286	328.15	830.31	.04
1	328.15	831.31	.04

System: ethanol + (.+-.)-linalool; phases: Liquid
Fixed: Pressure, kPa = 101
Property: Speed of sound, m/s (Liquid); method: Sing-around technique in a fixed-path interferometer
Mole fraction of (.+-.)-linalool	Temperature, K	Speed of sound, m/s	uncertainty
0	283.15	1196.2	.2
.0506	283.15	1222	.2
.1008	283.15	1245	.2
.1969	283.15	1281	.2
.2959	283.15	1307.6	.2
.3862	283.15	1325.8	.2
.4803	283.15	1339	.2
.593	283.15	1350.3	.2
.6838	283.15	1355.4	.2
.7832	283.15	1361	.2
.8941	283.15	1365.1	.2
.9286	283.15	1366.7	.2
1	283.15	1370.6	.2
0	298.15	1146.2	.2
.0507	298.15	1171.7	.2
.1008	298.15	1196.3	.2
.1969	298.15	1229.2	.2
.2895	298.15	1253.6	.2
.3862	298.15	1271.2	.2
.4834	298.15	1285	.2
.593	298.15	1294.7	.2
.6838	298.15	1300.7	.2
.7832	298.15	1306.5	.2
.8941	298.15	1310.7	.2
.9286	298.15	1312.2	.2
1	298.15	1315.1	.2
0	313.15	1096.7	.2
.0507	313.15	1122.4	.2
.0996	313.15	1142.3	.2
.1969	313.15	1177.2	.2
.2959	313.15	1200.7	.2
.3918	313.15	1218.2	.2
.4854	313.15	1230.3	.2
.593	313.15	1240	.2
.6838	313.15	1247.1	.2
.7832	313.15	1252.8	.2
.8633	313.15	1257	.2
.9286	313.15	1259.5	.2
1	313.15	1260.8	.2
0	328.15	1047	.2
.0493	328.15	1070.8	.2
.1008	328.15	1095.1	.2
.1969	328.15	1125	.2
.2959	328.15	1147.3	.2
.3957	328.15	1163.9	.2
.4834	328.15	1173.9	.2
.593	328.15	1185.1	.2
.6838	328.15	1193.8	.2
.7832	328.15	1199	.2
.8633	328.15	1203.2	.2
.9286	328.15	1206.3	.2
1	328.15	1207.6	.2

System: ethanol + (.+-.)-linalool; phases: Liquid
Fixed: Pressure, kPa = 101
Property: Refractive index (Na D-line) (Liquid); method: Standard Abbe refractometry
Mole fraction of (.+-.)-linalool	Temperature, K	Refractive index (Na D-line)	uncertainty
0	283.15	1.36546	.00004
.0506	283.15	1.38013	.00004
.1008	283.15	1.39241	.00004
.1969	283.15	1.41091	.00004
.2884	283.15	1.42392	.00004
.388	283.15	1.43469	.00004
.4803	283.15	1.44248	.00004
.56	283.15	1.44799	.00004
.6838	283.15	1.45474	.00004
.7832	283.15	1.45921	.00004
.8941	283.15	1.46319	.00004
.9286	283.15	1.46443	.00004
1	283.15	1.4666	.00004
0	298.15	1.35984	.00004
.0506	298.15	1.37416	.00004
.1008	298.15	1.38626	.00004
.1969	298.15	1.40451	.00004
.2895	298.15	1.4175	.00004
.388	298.15	1.42801	.00004
.4834	298.15	1.4359	.00004
.593	298.15	1.44306	.00004
.6838	298.15	1.44779	.00004
.8438	298.15	1.45451	.00004
.8941	298.15	1.45612	.00004
.9337	298.15	1.45748	.00004
1	298.15	1.45946	.00004
0	313.15	1.35409	.00004
.0493	313.15	1.3678	.00004
.1008	313.15	1.37996	.00004
.1969	313.15	1.39788	.00004
.2895	313.15	1.41061	.00004
.3957	313.15	1.42171	.00004
.4834	313.15	1.42883	.00004
.593	313.15	1.43594	.00004
.6838	313.15	1.44061	.00004
.8438	313.15	1.44732	.00004
.8941	313.15	1.4489	.00004
.9286	313.15	1.45004	.00004
1	313.15	1.45215	.00004
0	328.15	1.34827	.00004
.0471	328.15	1.3611	.00004
.1008	328.15	1.37358	.00004
.1969	328.15	1.39102	.00004
.2895	328.15	1.4036	.00004
.3957	328.15	1.41452	.00004
.4834	328.15	1.42158	.00004
.593	328.15	1.42859	.00004
.6838	328.15	1.43327	.00004
.8438	328.15	1.43989	.00004
.8941	328.15	1.4415	.00004
.9286	328.15	1.44266	.00004
1	328.15	1.44473	.00004

System: ethanol + (.+-.)-linalool; phases: Liquid
Property: Mass density, kg/m3 (Liquid); method: Vibrating tube method
Pressure, kPa	Mole fraction of (.+-.)-linalool	Temperature, K	Mass density, kg/m3	uncertainty
20000	0	283.15	812.8	.5
20000	.0511	283.15	824.1	.5
20000	.1003	283.15	832.7	.5
20000	.1962	283.15	845.8	.5
20000	.2989	283.15	856	.5
20000	.3996	283.15	863	.5
20000	.5015	283.15	868.2	.5
20000	.5982	283.15	871.9	.5
20000	.6898	283.15	874.7	.5
20000	.7929	283.15	877.2	.5
20000	.8885	283.15	879.1	.5
20000	.9435	283.15	880	.5
20000	1	283.15	880.8	.5
25000	0	283.15	816.5	.5
25000	.0511	283.15	827.5	.5
25000	.1003	283.15	836.1	.5
25000	.1962	283.15	849	.5
25000	.2989	283.15	859.1	.5
25000	.3996	283.15	866	.5
25000	.5015	283.15	871.2	.5
25000	.5982	283.15	874.9	.5
25000	.6898	283.15	877.6	.5
25000	.7929	283.15	880.1	.5
25000	.8885	283.15	882	.5
25000	.9435	283.15	882.9	.5
25000	1	283.15	883.7	.5
30000	0	283.15	819.8	.5
30000	.0511	283.15	830.7	.5
30000	.1003	283.15	839	.5
30000	.1962	283.15	851.9	.5
30000	.2989	283.15	861.9	.5
30000	.3996	283.15	868.8	.5
30000	.5015	283.15	873.9	.5
30000	.5982	283.15	877.5	.5
30000	.6898	283.15	880.2	.5
30000	.7929	283.15	882.7	.5
30000	.8885	283.15	884.6	.5
30000	.9435	283.15	885.4	.5
30000	1	283.15	886.1	.5
35000	0	283.15	823	.5
35000	.0511	283.15	833.8	.5
35000	.1003	283.15	842.2	.5
35000	.1962	283.15	854.9	.5
35000	.2989	283.15	864.7	.5
35000	.3996	283.15	871.5	.5
35000	.5015	283.15	876.7	.5
35000	.5982	283.15	880.3	.5
35000	.6898	283.15	882.9	.5
35000	.7929	283.15	885.3	.5
35000	.8885	283.15	887.2	.5
35000	.9435	283.15	888.1	.5
35000	1	283.15	888.9	.5
40000	0	283.15	826.1	.5
40000	.0511	283.15	836.8	.5
40000	.1003	283.15	845.1	.5
40000	.1962	283.15	857.6	.5
40000	.2989	283.15	867.4	.5
40000	.3996	283.15	874.1	.5
40000	.5015	283.15	879.3	.5
40000	.5982	283.15	882.8	.5
40000	.6898	283.15	885.5	.5
40000	.7929	283.15	887.9	.5
40000	.8885	283.15	889.7	.5
40000	.9435	283.15	890.6	.5
40000	1	283.15	891.4	.5
20000	0	298.15	801.5	.5
20000	.0511	298.15	812.6	.5
20000	.1003	298.15	821.5	.5
20000	.1962	298.15	834.6	.5
20000	.2989	298.15	844.8	.5
20000	.3996	298.15	851.7	.5
20000	.5015	298.15	856.9	.5
20000	.5982	298.15	860.6	.5
20000	.6898	298.15	863.4	.5
20000	.7929	298.15	865.8	.5
20000	.8885	298.15	867.7	.5
20000	.9435	298.15	868.6	.5
20000	1	298.15	869.4	.5
25000	0	298.15	805.3	.5
25000	.0511	298.15	816.1	.5
25000	.1003	298.15	824.9	.5
25000	.1962	298.15	837.9	.5
25000	.2989	298.15	848	.5
25000	.3996	298.15	854.8	.5
25000	.5015	298.15	860	.5
25000	.5982	298.15	863.6	.5
25000	.6898	298.15	866.3	.5
25000	.7929	298.15	868.7	.5
25000	.8885	298.15	870.7	.5
25000	.9435	298.15	871.5	.5
25000	1	298.15	872.3	.5
30000	0	298.15	808.8	.5
30000	.0511	298.15	819.6	.5
30000	.1003	298.15	828.2	.5
30000	.1962	298.15	841.1	.5
30000	.2989	298.15	851	.5
30000	.3996	298.15	857.8	.5
30000	.5015	298.15	863	.5
30000	.5982	298.15	866.5	.5
30000	.6898	298.15	869.2	.5
30000	.7929	298.15	871.6	.5
30000	.8885	298.15	873.5	.5
30000	.9435	298.15	874.4	.5
30000	1	298.15	875.2	.5
35000	0	298.15	812.2	.5
35000	.0511	298.15	822.8	.5
35000	.1003	298.15	831.4	.5
35000	.1962	298.15	844.1	.5
35000	.2989	298.15	854	.5
35000	.3996	298.15	860.7	.5
35000	.5015	298.15	865.8	.5
35000	.5982	298.15	869.3	.5
35000	.6898	298.15	872	.5
35000	.7929	298.15	874.4	.5
35000	.8885	298.15	876.3	.5
35000	.9435	298.15	877.1	.5
35000	1	298.15	877.9	.5
40000	0	298.15	815.5	.5
40000	.0511	298.15	826	.5
40000	.1003	298.15	834.5	.5
40000	.1962	298.15	847.1	.5
40000	.2989	298.15	856.9	.5
40000	.3996	298.15	863.5	.5
40000	.5015	298.15	868.6	.5
40000	.5982	298.15	872.1	.5
40000	.6898	298.15	874.8	.5
40000	.7929	298.15	877.1	.5
40000	.8885	298.15	878.9	.5
40000	.9435	298.15	879.7	.5
40000	1	298.15	880.6	.5
20000	0	313.15	789.8	.5
20000	.0511	313.15	801	.5
20000	.1003	313.15	809.9	.5
20000	.1962	313.15	823	.5
20000	.2989	313.15	833.1	.5
20000	.3996	313.15	840	.5
20000	.5015	313.15	845.2	.5
20000	.5982	313.15	848.8	.5
20000	.6898	313.15	851.6	.5
20000	.7929	313.15	854.1	.5
20000	.8885	313.15	856	.5
20000	.9435	313.15	856.9	.5
20000	1	313.15	857.6	.5
25000	0	313.15	794	.5
25000	.0511	313.15	804.8	.5
25000	.1003	313.15	813.7	.5
25000	.1962	313.15	826.7	.5
25000	.2989	313.15	836.6	.5
25000	.3996	313.15	843.5	.5
25000	.5015	313.15	848.6	.5
25000	.5982	313.15	852.2	.5
25000	.6898	313.15	854.9	.5
25000	.7929	313.15	857.4	.5
25000	.8885	313.15	859.3	.5
25000	.9435	313.15	860.1	.5
25000	1	313.15	860.9	.5
30000	0	313.15	797.4	.5
30000	.0511	313.15	808.5	.5
30000	.1003	313.15	817.2	.5
30000	.1962	313.15	830.1	.5
30000	.2989	313.15	839.9	.5
30000	.3996	313.15	846.7	.5
30000	.5015	313.15	851.7	.5
30000	.5982	313.15	855.3	.5
30000	.6898	313.15	858	.5
30000	.7929	313.15	860.5	.5
30000	.8885	313.15	862.3	.5
30000	.9435	313.15	863.1	.5
30000	1	313.15	863.9	.5
35000	0	313.15	801	.5
35000	.0511	313.15	812	.5
35000	.1003	313.15	820.6	.5
35000	.1962	313.15	833.3	.5
35000	.2989	313.15	843	.5
35000	.3996	313.15	849.6	.5
35000	.5015	313.15	854.7	.5
35000	.5982	313.15	858.3	.5
35000	.6898	313.15	861	.5
35000	.7929	313.15	863.4	.5
35000	.8885	313.15	865.3	.5
35000	.9435	313.15	866.1	.5
35000	1	313.15	866.8	.5
40000	0	313.15	804.8	.5
40000	.0511	313.15	815.4	.5
40000	.1003	313.15	824	.5
40000	.1962	313.15	836.5	.5
40000	.2989	313.15	846.2	.5
40000	.3996	313.15	852.8	.5
40000	.5015	313.15	857.8	.5
40000	.5982	313.15	861.3	.5
40000	.6898	313.15	864	.5
40000	.7929	313.15	866.3	.5
40000	.8885	313.15	868.2	.5
40000	.9435	313.15	869	.5
40000	1	313.15	869.7	.5
20000	0	328.15	777.8	.5
20000	.0511	328.15	789.2	.5
20000	.1003	328.15	798.3	.5
20000	.1962	328.15	811.4	.5
20000	.2989	328.15	821.4	.5
20000	.3996	328.15	828.3	.5
20000	.5015	328.15	833.5	.5
20000	.5982	328.15	837.1	.5
20000	.6898	328.15	839.9	.5
20000	.7929	328.15	842.5	.5
20000	.8885	328.15	844.4	.5
20000	.9435	328.15	845.3	.5
20000	1	328.15	846	.5
25000	0	328.15	782.2	.5
25000	.0511	328.15	793.4	.5
25000	.1003	328.15	802.2	.5
25000	.1962	328.15	815.2	.5
25000	.2989	328.15	825.1	.5
25000	.3996	328.15	831.9	.5
25000	.5015	328.15	837	.5
25000	.5982	328.15	840.6	.5
25000	.6898	328.15	843.4	.5
25000	.7929	328.15	845.9	.5
25000	.8885	328.15	847.8	.5
25000	.9435	328.15	848.6	.5
25000	1	328.15	849.3	.5
30000	0	328.15	786.3	.5
30000	.0511	328.15	797.1	.5
30000	.1003	328.15	806	.5
30000	.1962	328.15	818.8	.5
30000	.2989	328.15	828.6	.5
30000	.3996	328.15	835.3	.5
30000	.5015	328.15	840.4	.5
30000	.5982	328.15	843.9	.5
30000	.6898	328.15	846.7	.5
30000	.7929	328.15	849.2	.5
30000	.8885	328.15	851	.5
30000	.9435	328.15	851.9	.5
30000	1	328.15	852.6	.5
35000	0	328.15	790	.5
35000	.0511	328.15	800.7	.5
35000	.1003	328.15	809.6	.5
35000	.1962	328.15	822.3	.5
35000	.2989	328.15	832	.5
35000	.3996	328.15	838.6	.5
35000	.5015	328.15	843.6	.5
35000	.5982	328.15	847.2	.5
35000	.6898	328.15	849.9	.5
35000	.7929	328.15	852.3	.5
35000	.8885	328.15	854.2	.5
35000	.9435	328.15	855	.5
35000	1	328.15	855.7	.5
40000	0	328.15	793.9	.5
40000	.0511	328.15	804.6	.5
40000	.1003	328.15	813.1	.5
40000	.1962	328.15	825.6	.5
40000	.2989	328.15	835.2	.5
40000	.3996	328.15	841.8	.5
40000	.5015	328.15	846.7	.5
40000	.5982	328.15	850.3	.5
40000	.6898	328.15	853	.5
40000	.7929	328.15	855.4	.5
40000	.8885	328.15	857.2	.5
40000	.9435	328.15	858.1	.5
40000	1	328.15	858.8	.5

System: ethanol + (.+-.)-linalool; phases: Liquid
Fixed: Pressure, kPa = 101
Property: Excess molar volume, m3/mol (Liquid); method: Calculated with densities of this investigation
Mole fraction of (.+-.)-linalool	Temperature, K	Excess molar volume, m3/mol	uncertainty
.0506	283.15	-.000000108	-.00000000054
.1008	283.15	-.00000022	-.0000000011
.1969	283.15	-.000000442	-.00000000221
.2895	283.15	-.00000062	-.0000000031
.3957	283.15	-.000000734	-.00000000367
.4803	283.15	-.000000754	-.00000000377
.593	283.15	-.000000689	-.000000003445
.6838	283.15	-.000000575	-.000000002875
.8438	283.15	-.000000268	-.00000000134
.8941	283.15	-.000000187	-.000000000935
.9286	283.15	-.000000126	-.00000000063
.0506	298.15	-.000000127	-.000000000635
.1008	298.15	-.000000263	-.000000001315
.1969	298.15	-.000000493	-.000000002465
.2895	298.15	-.000000665	-.000000003325
.3862	298.15	-.000000759	-.000000003795
.4803	298.15	-.000000795	-.000000003975
.593	298.15	-.000000729	-.000000003645
.6838	298.15	-.000000613	-.000000003065
.8438	298.15	-.000000296	-.00000000148
.8941	298.15	-.000000209	-.000000001045
.9286	298.15	-.000000142	-.00000000071
.0506	313.15	-.000000153	-.000000000765
.1008	313.15	-.000000315	-.000000001575
.1969	313.15	-.000000538	-.00000000269
.2884	313.15	-.00000072	-.0000000036
.3957	313.15	-.000000824	-.00000000412
.4803	313.15	-.000000834	-.00000000417
.593	313.15	-.000000763	-.000000003815
.6838	313.15	-.000000646	-.00000000323
.8438	313.15	-.000000324	-.00000000162
.8941	313.15	-.000000229	-.000000001145
.9286	313.15	-.000000157	-.000000000785
.0506	328.15	-.00000016	-.0000000008
.1008	328.15	-.000000311	-.000000001555
.1969	328.15	-.000000567	-.000000002835
.2884	328.15	-.000000748	-.00000000374
.3957	328.15	-.000000845	-.000000004225
.4803	328.15	-.000000853	-.000000004265
.593	328.15	-.000000784	-.00000000392
.6838	328.15	-.000000667	-.000000003335
.8438	328.15	-.000000357	-.000000001785
.8941	328.15	-.00000024	-.0000000012
.9286	328.15	-.000000165	-.000000000825

System: ethanol + (.+-.)-linalool; phases: Liquid
Property: Excess molar volume, m3/mol (Liquid); method: Calculated with densities of this investigation
Pressure, kPa	Mole fraction of (.+-.)-linalool	Temperature, K	Excess molar volume, m3/mol	uncertainty
20000	.0511	283.15	-.00000012	-.0000000006
20000	.1003	283.15	-.0000002	-.000000001
20000	.1962	283.15	-.00000036	-.0000000018
20000	.2989	283.15	-.00000049	-.00000000245
20000	.3996	283.15	-.00000054	-.0000000027
20000	.5015	283.15	-.00000053	-.00000000265
20000	.5982	283.15	-.00000047	-.00000000235
20000	.6898	283.15	-.0000004	-.000000002
20000	.7929	283.15	-.00000029	-.00000000145
20000	.8885	283.15	-.00000018	-.0000000009
20000	.9435	283.15	-.000000009	-.000000000045
25000	.0511	283.15	-.00000011	-.00000000055
25000	.1003	283.15	-.00000019	-.00000000095
25000	.1962	283.15	-.00000034	-.0000000017
25000	.2989	283.15	-.00000047	-.00000000235
25000	.3996	283.15	-.00000051	-.00000000255
25000	.5015	283.15	-.00000051	-.00000000255
25000	.5982	283.15	-.00000046	-.0000000023
25000	.6898	283.15	-.00000038	-.0000000019
25000	.7929	283.15	-.00000028	-.0000000014
25000	.8885	283.15	-.00000017	-.00000000085
25000	.9435	283.15	-.000000009	-.000000000045
30000	.0511	283.15	-.00000011	-.00000000055
30000	.1003	283.15	-.00000018	-.0000000009
30000	.1962	283.15	-.00000033	-.00000000165
30000	.2989	283.15	-.00000046	-.0000000023
30000	.3996	283.15	-.00000052	-.0000000026
30000	.5015	283.15	-.00000052	-.0000000026
30000	.5982	283.15	-.00000046	-.0000000023
30000	.6898	283.15	-.00000039	-.00000000195
30000	.7929	283.15	-.0000003	-.0000000015
30000	.8885	283.15	-.0000002	-.000000001
30000	.9435	283.15	-.00000011	-.00000000055
35000	.0511	283.15	-.0000001	-.0000000005
35000	.1003	283.15	-.00000018	-.0000000009
35000	.1962	283.15	-.00000032	-.0000000016
35000	.2989	283.15	-.00000044	-.0000000022
35000	.3996	283.15	-.00000049	-.00000000245
35000	.5015	283.15	-.0000005	-.0000000025
35000	.5982	283.15	-.00000045	-.00000000225
35000	.6898	283.15	-.00000036	-.0000000018
35000	.7929	283.15	-.00000026	-.0000000013
35000	.8885	283.15	-.00000016	-.0000000008
35000	.9435	283.15	-.000000008	-.00000000004
40000	.0511	283.15	-.0000001	-.0000000005
40000	.1003	283.15	-.00000018	-.0000000009
40000	.1962	283.15	-.00000031	-.00000000155
40000	.2989	283.15	-.00000043	-.00000000215
40000	.3996	283.15	-.00000047	-.00000000235
40000	.5015	283.15	-.00000049	-.00000000245
40000	.5982	283.15	-.00000043	-.00000000215
40000	.6898	283.15	-.00000037	-.00000000185
40000	.7929	283.15	-.00000026	-.0000000013
40000	.8885	283.15	-.00000015	-.00000000075
40000	.9435	283.15	-.000000008	-.00000000004
20000	.0511	298.15	-.00000011	-.00000000055
20000	.1003	298.15	-.00000022	-.0000000011
20000	.1962	298.15	-.00000038	-.0000000019
20000	.2989	298.15	-.00000052	-.0000000026
20000	.3996	298.15	-.00000056	-.0000000028
20000	.5015	298.15	-.00000055	-.00000000275
20000	.5982	298.15	-.0000005	-.0000000025
20000	.6898	298.15	-.00000043	-.00000000215
20000	.7929	298.15	-.0000003	-.0000000015
20000	.8885	298.15	-.00000018	-.0000000009
20000	.9435	298.15	-.0000001	-.0000000005
25000	.0511	298.15	-.0000001	-.0000000005
25000	.1003	298.15	-.0000002	-.000000001
25000	.1962	298.15	-.00000036	-.0000000018
25000	.2989	298.15	-.00000051	-.00000000255
25000	.3996	298.15	-.00000054	-.0000000027
25000	.5015	298.15	-.00000055	-.00000000275
25000	.5982	298.15	-.00000049	-.00000000245
25000	.6898	298.15	-.0000004	-.000000002
25000	.7929	298.15	-.00000028	-.0000000014
25000	.8885	298.15	-.00000019	-.00000000095
25000	.9435	298.15	-.000000009	-.000000000045
30000	.0511	298.15	-.0000001	-.0000000005
30000	.1003	298.15	-.0000002	-.000000001
30000	.1962	298.15	-.00000036	-.0000000018
30000	.2989	298.15	-.00000048	-.0000000024
30000	.3996	298.15	-.00000052	-.0000000026
30000	.5015	298.15	-.00000053	-.00000000265
30000	.5982	298.15	-.00000047	-.00000000235
30000	.6898	298.15	-.00000039	-.00000000195
30000	.7929	298.15	-.00000027	-.00000000135
30000	.8885	298.15	-.00000017	-.00000000085
30000	.9435	298.15	-.000000009	-.000000000045
35000	.0511	298.15	-.000000009	-.000000000045
35000	.1003	298.15	-.00000019	-.00000000095
35000	.1962	298.15	-.00000034	-.0000000017
35000	.2989	298.15	-.00000048	-.0000000024
35000	.3996	298.15	-.00000052	-.0000000026
35000	.5015	298.15	-.00000052	-.0000000026
35000	.5982	298.15	-.00000046	-.0000000023
35000	.6898	298.15	-.00000039	-.00000000195
35000	.7929	298.15	-.00000028	-.0000000014
35000	.8885	298.15	-.00000018	-.0000000009
35000	.9435	298.15	-.000000009	-.000000000045
40000	.0511	298.15	-.000000009	-.000000000045
40000	.1003	298.15	-.00000019	-.00000000095
40000	.1962	298.15	-.00000033	-.00000000165
40000	.2989	298.15	-.00000047	-.00000000235
40000	.3996	298.15	-.0000005	-.0000000025
40000	.5015	298.15	-.00000051	-.00000000255
40000	.5982	298.15	-.00000045	-.00000000225
40000	.6898	298.15	-.00000039	-.00000000195
40000	.7929	298.15	-.00000027	-.00000000135
40000	.8885	298.15	-.00000015	-.00000000075
40000	.9435	298.15	-.000000006	-.00000000003
20000	.0582	313.15	-.00000012	-.0000000006
20000	.1037	313.15	-.00000024	-.0000000012
20000	.1803	313.15	-.00000041	-.00000000205
20000	.3087	313.15	-.00000054	-.0000000027
20000	.4104	313.15	-.00000059	-.00000000295
20000	.4994	313.15	-.00000058	-.0000000029
20000	.5939	313.15	-.00000051	-.00000000255
20000	.7117	313.15	-.00000044	-.0000000022
20000	.7777	313.15	-.00000033	-.00000000165
20000	.8566	313.15	-.0000002	-.000000001
20000	.9405	313.15	-.00000012	-.0000000006
25000	.0582	313.15	-.0000001	-.0000000005
25000	.1037	313.15	-.00000022	-.0000000011
25000	.1803	313.15	-.00000039	-.00000000195
25000	.3087	313.15	-.00000052	-.0000000026
25000	.4104	313.15	-.00000057	-.00000000285
25000	.4994	313.15	-.00000056	-.0000000028
25000	.5939	313.15	-.0000005	-.0000000025
25000	.7117	313.15	-.00000041	-.00000000205
25000	.7777	313.15	-.00000031	-.00000000155
25000	.8566	313.15	-.000000002	-.00000000001
25000	.9405	313.15	-.000000009	-.000000000045
30000	.0582	313.15	-.00000013	-.00000000065
30000	.1037	313.15	-.00000024	-.0000000012
30000	.1803	313.15	-.0000004	-.000000002
30000	.3087	313.15	-.00000052	-.0000000026
30000	.4104	313.15	-.00000057	-.00000000285
30000	.4994	313.15	-.00000055	-.00000000275
30000	.5939	313.15	-.0000005	-.0000000025
30000	.7117	313.15	-.00000042	-.0000000021
30000	.7777	313.15	-.00000032	-.0000000016
30000	.8566	313.15	-.00000019	-.00000000095
30000	.9405	313.15	-.000000009	-.000000000045
35000	.0582	313.15	-.00000013	-.00000000065
35000	.1037	313.15	-.00000023	-.00000000115
35000	.1803	313.15	-.00000039	-.00000000195
35000	.3087	313.15	-.00000051	-.00000000255
35000	.4104	313.15	-.00000054	-.0000000027
35000	.4994	313.15	-.00000054	-.0000000027
35000	.5939	313.15	-.00000049	-.00000000245
35000	.7117	313.15	-.00000042	-.0000000021
35000	.7777	313.15	-.00000031	-.00000000155
35000	.8566	313.15	-.0000002	-.000000001
35000	.9405	313.15	-.00000011	-.00000000055
40000	.0582	313.15	-.0000001	-.0000000005
40000	.1037	313.15	-.00000021	-.00000000105
40000	.1803	313.15	-.00000036	-.0000000018
40000	.3087	313.15	-.00000049	-.00000000245
40000	.4104	313.15	-.00000053	-.00000000265
40000	.4994	313.15	-.00000053	-.00000000265
40000	.5939	313.15	-.00000047	-.00000000235
40000	.7117	313.15	-.00000041	-.00000000205
40000	.7777	313.15	-.00000029	-.00000000145
40000	.8566	313.15	-.00000019	-.00000000095
40000	.9405	313.15	-.0000001	-.0000000005
20000	.0582	328.15	-.00000014	-.0000000007
20000	.1037	328.15	-.00000028	-.0000000014
20000	.1803	328.15	-.00000045	-.00000000225
20000	.3087	328.15	-.00000057	-.00000000285
20000	.4104	328.15	-.00000061	-.00000000305
20000	.4994	328.15	-.0000006	-.000000003
20000	.5939	328.15	-.00000053	-.00000000265
20000	.7117	328.15	-.00000045	-.00000000225
20000	.7777	328.15	-.00000034	-.0000000017
20000	.8566	328.15	-.00000021	-.00000000105
20000	.9405	328.15	-.00000012	-.0000000006
25000	.0582	328.15	-.00000014	-.0000000007
25000	.1037	328.15	-.00000025	-.00000000125
25000	.1803	328.15	-.00000043	-.00000000215
25000	.3087	328.15	-.00000055	-.00000000275
25000	.4104	328.15	-.00000059	-.00000000295
25000	.4994	328.15	-.00000058	-.0000000029
25000	.5939	328.15	-.00000052	-.0000000026
25000	.7117	328.15	-.00000045	-.00000000225
25000	.7777	328.15	-.00000034	-.0000000017
25000	.8566	328.15	-.00000022	-.0000000011
25000	.9405	328.15	-.00000012	-.0000000006
30000	.0582	328.15	-.00000011	-.00000000055
30000	.1037	328.15	-.00000024	-.0000000012
30000	.1803	328.15	-.0000004	-.000000002
30000	.3087	328.15	-.00000053	-.00000000265
30000	.4104	328.15	-.00000057	-.00000000285
30000	.4994	328.15	-.00000056	-.0000000028
30000	.5939	328.15	-.00000049	-.00000000245
30000	.7117	328.15	-.00000043	-.00000000215
30000	.7777	328.15	-.00000032	-.0000000016
30000	.8566	328.15	-.00000019	-.00000000095
30000	.9405	328.15	-.00000011	-.00000000055
35000	.0582	328.15	-.00000011	-.00000000055
35000	.1037	328.15	-.00000024	-.0000000012
35000	.1803	328.15	-.0000004	-.000000002
35000	.3087	328.15	-.00000053	-.00000000265
35000	.4104	328.15	-.00000056	-.0000000028
35000	.4994	328.15	-.00000055	-.00000000275
35000	.5939	328.15	-.0000005	-.0000000025
35000	.7117	328.15	-.00000043	-.00000000215
35000	.7777	328.15	-.00000031	-.00000000155
35000	.8566	328.15	-.00000021	-.00000000105
35000	.9405	328.15	-.00000011	-.00000000055
40000	.0582	328.15	-.00000011	-.00000000055
40000	.1037	328.15	-.00000022	-.0000000011
40000	.1803	328.15	-.00000037	-.00000000185
40000	.3087	328.15	-.00000049	-.00000000245
40000	.4104	328.15	-.00000053	-.00000000265
40000	.4994	328.15	-.00000052	-.0000000026
40000	.5939	328.15	-.00000047	-.00000000235
40000	.7117	328.15	-.0000004	-.000000002
40000	.7777	328.15	-.0000003	-.0000000015
40000	.8566	328.15	-.00000018	-.0000000009
40000	.9405	328.15	-.00000011	-.00000000055
