Measured thermophysical data. Measurement and correlation of the solubility of florfenicol in binary 1,2-propanediol + water mixtures from 293.15 K to 316.25 K
Source: Fluid Phase Equilib., 2013, 10.1016/j.fluid.2013.09.020
Compound 1: 1,2-dihydroxypropane, C3H8O2, purity 99.8%
Compound 2: florfenicol, C12H14Cl2FNO4S, purity 98.5%
Compound 3: water, H2O

System: 1,2-dihydroxypropane + water + florfenicol; phases: Liquid, Crystal
Fixed: Pressure, kPa = 101
Property: Mole fraction of florfenicol (Liquid); method: UV Spectrophotometry
Temperature, K	Solvent: Mole fraction of 1,2-dihydroxypropane	Mole fraction of florfenicol	uncertainty
293.15	0	.0000505	.0001
296.85	0	.0000615	.0001
300.75	0	.0000819	.0001
304.55	0	.0000852	.0001
308.25	0	.0000971	.0001
312.15	0	.0001221	.0001
316.25	0	.0001472	.0001
293.15	.0125	.0000624	.0001
296.85	.0125	.0000794	.0001
300.75	.0125	.0000936	.0001
304.55	.0125	.0001135	.0001
308.25	.0125	.0001382	.0001
312.15	.0125	.0001614	.0001
316.25	.0125	.0001906	.0001
293.15	.057	.0000842	.0001
296.85	.057	.0001113	.0001
300.75	.057	.000141	.0001
304.55	.057	.0001692	.0001
308.25	.057	.000215	.0001
312.15	.057	.0002871	.0001
316.25	.057	.0003589	.0001
293.15	.1129	.0001401	.0001
296.85	.1129	.0001901	.0001
300.75	.1129	.0002402	.0001
304.55	.1129	.0002889	.0001
308.25	.1129	.0003634	.0001
312.15	.1129	.0004793	.0001
316.25	.1129	.000643	.0001
293.15	.1994	.0002599	.0001
296.85	.1994	.0003569	.0001
300.75	.1994	.0004335	.0001
304.55	.1994	.0005334	.0001
308.25	.1994	.0006525	.0001
312.15	.1994	.0008422	.0001
316.25	.1994	.0010359	.0001
293.15	.2429	.000334	.0001
296.85	.2429	.000441	.0001
300.75	.2429	.0004917	.0001
304.55	.2429	.0006461	.0001
308.25	.2429	.0008257	.0001
312.15	.2429	.0010481	.0001
316.25	.2429	.0012252	.0001

System: water + florfenicol; phases: Liquid, Crystal
Property: Mole fraction of florfenicol (Liquid); method: UV Spectrophotometry
Temperature, K	Pressure, kPa	Mole fraction of florfenicol	uncertainty
293.15	101	.0000505	.0001
296.85	101	.0000615	.0001
300.75	101	.0000819	.0001
304.55	101	.0000852	.0001
308.25	101	.0000971	.0001
312.15	101	.0001221	.0001
316.25	101	.0001472	.0001
