Measured thermophysical data. Experimental study of the PVT and CVVT properties of n-butanol in the critical  region
Source: Fluid Phase Equilib., 2013, 10.1016/j.fluid.2012.09.026
Compound 1: n-butanol, C4H10O, purity 99.2%

System: n-butanol; phases: Gas
Property: Mass density, kg/m3 (Gas); method: Isochoric PVT measurement
Temperature, K	Pressure, kPa	Mass density, kg/m3	uncertainty
497.6	1555	113.76	.136512
507.23	1874	113.76	.136512
518.64	2241	113.76	.136512
528.31	2642	113.76	.136512
539.69	3127	113.76	.136512
543.3	3315	113.76	.136512
546.79	3456	113.76	.136512
548.15	3531	113.76	.136512
551.66	3610	113.76	.136512
558.64	3788	113.76	.136512
574.48	4178	113.76	.136512
590.87	4586	113.76	.136512
605.17	4925	113.76	.136512
616.28	5197	113.76	.136512
497.65	1555	167.7	.20124
507.25	1874	167.7	.20124
519.2	2252	167.7	.20124
531.38	2775	167.7	.20124
543.89	3315	167.7	.20124
550.45	3647	167.7	.20124
555.53	3893	167.7	.20124
557.65	4020	167.7	.20124
562.14	4275	167.7	.20124
569.15	4559	167.7	.20124
580.8	5000	167.7	.20124
593.16	5452	167.7	.20124
604.17	5852	167.7	.20124
616.27	6275	167.7	.20124
497.7	1559	203.9	.24468
507.3	1874	203.9	.24468
518.91	2246	203.9	.24468
533.03	2834	203.9	.24468
548.49	3579	203.9	.24468
555.7	3941	203.9	.24468
559.33	4118	203.9	.24468
563.04	4340	203.9	.24468
568.44	4598	203.9	.24468
577.73	5059	203.9	.24468
588.79	5613	203.9	.24468
600.42	6162	203.9	.24468
614.97	6834	203.9	.24468

System: n-butanol; phases: Liquid
Property: Mass density, kg/m3 (Liquid); method: Isochoric PVT measurement
Temperature, K	Pressure, kPa	Mass density, kg/m3	uncertainty
497.54	1549	270	.324
507.01	1854	270	.324
519.06	2248	270	.324
533.2	2834	270	.324
542.81	3295	270	.324
556.16	3963	270	.324
559.05	4128	270	.324
560.81	4275	270	.324
562.07	4350	270	.324
564.02	4461	270	.324
569.8	4775	270	.324
582.21	5647	270	.324
593.16	6393	270	.324
605.88	7197	270	.324
497.97	1559	345.9	.41508
506.84	1854	345.9	.41508
518.99	2248	345.9	.41508
533.4	2838	345.9	.41508
541.95	3295	345.9	.41508
555.6	3945	345.9	.41508
561.52	4275	345.9	.41508
565.29	4559	345.9	.41508
572.54	5138	345.9	.41508
583.19	6118	345.9	.41508
606.77	8197	345.9	.41508
496.62	1539	470	.564
506.74	1854	470	.564
518.91	2246	470	.564
532.65	2854	470	.564
537.47	3029	470	.564
541.16	3205	470	.564
543.19	3393	470	.564
550.05	4256	470	.564
561.09	6138	470	.564
584.19	10275	470	.564

System: n-butanol; phases: Liquid, Gas
Property: Vapor or sublimation pressure, kPa (Liquid); method: Closed cell (Static) method
Temperature, K	Vapor or sublimation pressure, kPa	uncertainty
497.6	1555	.7775
507.23	1844	.922
518.64	2241	1.1205
528.31	2622	1.311
539.69	3127	1.5635
543.3	3315	1.6575
546.79	3456	1.728
497.65	1555	.7775
507.25	1844	.922
519.2	2252	1.126
531.38	2776	1.388
543.89	3315	1.6575
550.45	3647	1.8235
555.53	3983	1.9915
557.65	4075	2.0375
497.7	1559	.7795
507.3	1854	.927
518.91	2246	1.123
533.03	2834	1.417
548.49	3579	1.7895
555.7	3941	1.9705
559.33	4181	2.0905
497.54	1549	.7745
507.01	1854	.927
519.06	2248	1.124
533.2	2834	1.417
542.81	3295	1.6475
556.16	3963	1.9815
559.05	4168	2.084
497.54	1549	.7745
507.01	1844	.922
519.06	2248	1.124
533.2	2834	1.417
542.81	3295	1.6475
556.16	3963	1.9815
559.05	4168	2.084
497.97	1559	.7795
506.84	1834	.917
518.99	2248	1.124
533.4	2838	1.419
541.95	3245	1.6225
555.6	3945	1.9725
496.62	1529	.7645
506.74	1834	.917
518.91	2246	1.123
532.65	2804	1.402
537.47	3029	1.5145
541.16	3205	1.6025
543.19	3293	1.6465

System: n-butanol; phases: Liquid, Gas
Property: Mass density, kg/m3 (Liquid); method: Isochoric Breaking Point
Temperature, K	Mass density, kg/m3	uncertainty
563.04	270	.324
561.08	345.9	.41508
540.57	470	.564

System: n-butanol; phases: Gas, Liquid
Property: Mass density, kg/m3 (Gas); method: Isochoric Breaking Point
Temperature, K	Mass density, kg/m3	uncertainty
547.36	113.76	.136512
558.65	167.7	.20124
561.85	203.9	.24468

System: n-butanol; phases: Liquid, Gas
Property: Molar heat capacity at constant volume, J/K/mol (Liquid); method: Vacuum adiabatic calorimetry
Temperature, K	Molar heat capacity at constant volume, J/K/mol	uncertainty
510.46	323.76	9.7128
532.18	349.26	10.4778
541.76	369.28	11.0784
552.62	398.93	11.9679
560.7	456.07	13.6821
562.14	507.74	15.2322
562.31	519.59	15.5877
562.49	556.66	16.6998
562.67	604.84	18.1452
562.85	675.92	20.2776

System: n-butanol; phases: Liquid
Property: Molar heat capacity at constant volume, J/K/mol (Liquid); method: Vacuum adiabatic calorimetry
Mass density, kg/m3	Temperature, K	Molar heat capacity at constant volume, J/K/mol	uncertainty
270	563.21	356.16	10.6848
270	563.39	317.24	9.5172
270	563.57	306.86	9.2058
270	564.81	294.63	8.8389
270	564.99	292.04	8.7612
270	565.17	290.19	8.7057
270	566.6	282.4	8.472
270	566.77	280.18	8.4054
270	566.95	279.81	8.3943
270	567.13	277.59	8.3277
270	569.09	269.8	8.094
270	569.26	269.06	8.0718
270	569.44	268.32	8.0496
270	573.52	259.06	7.7718
270	573.67	257.94	7.7382
270	582.51	246.83	7.4049
270	582.69	246.08	7.3824
270	582.86	246.08	7.3824
270	583.22	245.34	7.3602
270	590.92	240.15	7.2045
270	591.07	240.52	7.2156
270	591.23	239.41	7.1823
270	591.62	239.41	7.1823
270	598.76	235.34	7.0602
270	599.1	236.08	7.0824
270	599.28	235.71	7.0713
270	599.63	234.97	7.0491
270	605.17	232.74	6.9822
270	605.35	232.37	6.9711
270	606.21	232	6.96
270	606.56	232	6.96
270	609.49	231.26	6.9378
270	609.67	230.52	6.9156
270	609.84	230.89	6.9267
270	621.18	227.55	6.8265
270	621.53	226.81	6.8043
270	622.22	226.07	6.7821
270	637.42	225.33	6.7599
270	637.77	223.11	6.6933

System: n-butanol; phases: Liquid
Property: Molar heat capacity at constant volume, J/K/mol (Liquid); method: Vacuum adiabatic calorimetry
Temperature, K	Specific volume, m3/kg	Molar heat capacity at constant volume, J/K/mol	uncertainty
520	.001879	2.98	.0894
530	.001974	2.971	.08913
533.45	.002001	2.971	.08913
540	.002103	2.97	.0891
550	.002288	2.98	.0894
560	.002717	3.081	.09243
561	.002792	3.18	.0954
562	.002985	3.34	.1002
563	.003108	3.49	.1047

System: n-butanol; phases: Gas
Property: Molar heat capacity at constant volume, J/K/mol (Gas); method: Vacuum adiabatic calorimetry
Temperature, K	Specific volume, m3/kg	Molar heat capacity at constant volume, J/K/mol	uncertainty
520	.016529	3.19	.0957
530	.013513	3.28	.0984
533.45	.012425	3.321	.09963
540	.010776	3.4	.102
550	.008333	3.52	.1056
560	.005682	3.801	.11403
561	.005319	3.87	.1161
562	.004879	3.97	.1191
563	.0046	4.1	.123

System: n-butanol; phases: Liquid, Gas
Property: Molar heat capacity at constant volume, J/K/mol (Liquid); method: Vacuum adiabatic calorimetry
Temperature, K	Molar heat capacity at constant volume, J/K/mol	uncertainty
520	3.991	.11973
530	4.07	.1221
533.45	4.11	.1233
540	4.18	.1254
550	4.38	.1314
560	4.98	.1494
561	5.201	.15603
562	5.58	.1674
563	5.89	.1767

System: n-butanol; phases: Gas, Liquid
Property: Molar heat capacity at constant volume, J/K/mol (Gas); method: Vacuum adiabatic calorimetry
Temperature, K	Molar heat capacity at constant volume, J/K/mol	uncertainty
520	9.16	.2748
530	8.701	.26103
533.45	8.56	.2568
540	8.302	.24906
550	7.87	.2361
560	7.371	.22113
561	7.33	.2199
562	7.38	.2214
563	7.691	.23073

System: n-butanol; phases: Liquid, Gas
Property: Specific volume, m3/kg (Liquid); method: Isochoric PVT measurement
Temperature, K	Specific volume, m3/kg	uncertainty
520	.001879	.0000022548
530	.001974	.0000023688
533.45	.002001	.0000024012
540	.002103	.0000025236
550	.002288	.0000027456
560	.002717	.0000032604
561	.002792	.0000033504
562	.002985	.000003582
563	.003108	.0000037296

System: n-butanol; phases: Gas, Liquid
Property: Specific volume, m3/kg (Gas); method: Isochoric PVT measurement
Temperature, K	Specific volume, m3/kg	uncertainty
520	.016529	.0000198348
530	.013513	.0000162156
533.45	.012425	.00001491
540	.010776	.0000129312
550	.008333	.0000099996
560	.005682	.0000068184
561	.005319	.0000063828
562	.004879	.0000058548
563	.0046	.00000552
