Measured thermophysical data. Liquid-liquid equilibrium for the system water + 1,4-dioxane + cyclohexanol over the temperature range of 313.2 - 343.2 K
Source: Fluid Phase Equilib., 2012, 10.1016/j.fluid.2012.03.010
Compound 1: water, H2O, purity 99.8%
Compound 2: 1,4-dioxane, C4H8O2, purity 99.5%
Compound 3: cyclohexanol, C6H12O, purity 99.5%

System: cyclohexanol + 1,4-dioxane + water; phases: Liquid mixture 2, Liquid mixture 1
Fixed: Pressure, kPa = 101
Property: Mole fraction of 1,4-dioxane (Liquid mixture 2); method: Chromatography
Property: Mole fraction of water (Liquid mixture 1); method: Chromatography
Property: Mole fraction of 1,4-dioxane (Liquid mixture 1); method: Chromatography
Temperature, K	Mole fraction of water	Mole fraction of 1,4-dioxane	uncertainty	Mole fraction of water	uncertainty	Mole fraction of 1,4-dioxane	uncertainty
313.2	.9879	.0052	.001	.454	.001	.021	.001
323.2	.9722	.0185	.001	.477	.001	.068	.001
323.2	.967	.0145	.001	.48	.001	.06	.001
323.2	.9548	.0345	.001	.532	.001	.092	.001
323.2	.9603	.0241	.001	.53	.001	.089	.001
323.2	.9508	.0369	.001	.555	.001	.094	.001
323.2	.9492	.0361	.001	.549	.001	.102	.001
323.2	.9544	.0297	.001	.569	.001	.091	.001
323.2	.9384	.0429	.001	.601	.001	.115	.001
323.2	.936	.0403	.001	.622	.001	.109	.001
323.2	.9196	.0518	.001	.682	.001	.108	.001
313.2	.9855	.0066	.001	.464	.001	.026	.001
333.2	.9871	.0057	.001	.431	.001	.025	.001
333.2	.9805	.011	.001	.485	.001	.049	.001
333.2	.9785	.0128	.001	.493	.001	.062	.001
333.2	.9708	.0183	.001	.551	.001	.082	.001
333.2	.96	.0276	.001	.567	.001	.091	.001
333.2	.953	.0322	.001	.608	.001	.097	.001
343.2	.989	.0039	.001	.453	.001	.02	.001
343.2	.9811	.0101	.001	.483	.001	.049	.001
343.2	.9729	.0171	.001	.531	.001	.083	.001
343.2	.9613	.0269	.001	.568	.001	.094	.001
313.2	.9761	.0139	.001	.475	.001	.052	.001
343.2	.9581	.0287	.001	.581	.001	.097	.001
343.2	.9233	.0499	.001	.686	.001	.105	.001
343.2	.9049	.0584	.001	.717	.001	.098	.001
343.2	.9065	.0592	.001	.728	.001	.098	.001
313.2	.9698	.0203	.001	.482	.001	.072	.001
313.2	.9608	.0258	.001	.52	.001	.085	.001
313.2	.9537	.0327	.001	.545	.001	.1	.001
313.2	.936	.0446	.001	.596	.001	.116	.001
313.2	.916	.0585	.001	.671	.001	.123	.001
323.2	.977	.0145	.001	.453	.001	.045	.001
