Measured thermophysical data. Temperature change from isenthalpic expansion of aqueous triethylene glycol mixtures for natural gas dehydration
Source: Fluid Phase Equilib., 2011, 10.1016/j.fluid.2011.03.011
Compound 1: water, H2O
Compound 2: methane, CH4
Compound 3: pentane, C5H12
Compound 4: heptane, C7H16
Compound 5: 3,6-dioxa-1,8-octanediol, C6H14O4

System: water; phases: Liquid
Property: Joule-Thomson coefficient, K/kPa (Liquid); method: Expansion technique
Temperature, K	Pressure, kPa	Joule-Thomson coefficient, K/kPa	uncertainty
293.4	7000	-.000214	

System: 3,6-dioxa-1,8-octanediol; phases: Liquid
Property: Joule-Thomson coefficient, K/kPa (Liquid); method: Expansion technique
Temperature, K	Pressure, kPa	Joule-Thomson coefficient, K/kPa	uncertainty
293.1	7000	-.000366	

System: 3,6-dioxa-1,8-octanediol + water; phases: Liquid
Property: Joule-Thomson coefficient, K/kPa (Liquid); method: Expansion technique
Mass fraction of 3,6-dioxa-1,8-octanediol	Temperature, K	Pressure, kPa	Joule-Thomson coefficient, K/kPa	uncertainty
0	293.4	7000	-.000214	
1	293.1	7000	-.000366	
.99	293.8	7000	-.000321	
