Measured thermophysical data. Liquid-liquid equilibrium for the ternary systems of water + acetyl  acetone + propyl acetate at several temperatures
Source: Fluid Phase Equilib., 2011, 10.1016/j.fluid.2010.11.029
Compound 1: 2,4-pentanedione, C5H8O2, purity 99.8%
Compound 2: propyl ethanoate, C5H10O2, purity 99.5%
Compound 3: water, H2O, purity 99.8%

System: propyl ethanoate + 2,4-pentanedione + water; phases: Liquid mixture 1, Liquid mixture 2
Fixed: Pressure, kPa = 101
Property: Mass fraction of 2,4-pentanedione (Liquid mixture 1); method: Titration method
Temperature, K	Mass fraction of water	Mass fraction of 2,4-pentanedione	uncertainty
288.15	.0139	0	.0001
288.15	.015	.0953	.0001
288.15	.0159	.1624	.0001
288.15	.0174	.2759	.0001
288.15	.0185	.3596	.0001
288.15	.0195	.4431	.0001
288.15	.0205	.4872	.0001
288.15	.021	.5535	.0001
288.15	.0224	.6507	.0001
288.15	.0242	.7596	.0001
288.15	.0259	.8629	.0001
288.15	.8695	.1254	.0001
288.15	.8792	.1128	.0001
288.15	.8903	.0992	.0001
288.15	.9014	.0859	.0001
288.15	.9156	.0693	.0001
288.15	.927	.0561	.0001
288.15	.9387	.0425	.0001
288.15	.9544	.0243	.0001
288.15	.9635	.0139	.0001
288.15	.9785	0	.0001
298.15	.0154	0	.0001
298.15	.0157	.059	.0001
298.15	.0226	.096	.0001
298.15	.0228	.1794	.0001
298.15	.0246	.3096	.0001
298.15	.026	.3512	.0001
298.15	.0258	.4648	.0001
298.15	.0261	.5821	.0001
298.15	.0272	.6752	.0001
298.15	.0288	.824	.0001
298.15	.0298	.8812	.0001
298.15	.8422	.1578	.0001
298.15	.8524	.1444	.0001
298.15	.8715	.1227	.0001
298.15	.8761	.1124	.0001
298.15	.9018	.086	.0001
298.15	.9246	.0602	.0001
298.15	.9352	.0475	.0001
298.15	.9537	.028	.0001
298.15	.9738	.0076	.0001
298.15	.9795	0	.0001
313.15	.0224	0	.0001
313.15	.0242	.0928	.0001
313.15	.0263	.1726	.0001
313.15	.0275	.2436	.0001
313.15	.0292	.3223	.0001
313.15	.0314	.4251	.0001
313.15	.0343	.559	.0001
313.15	.036	.65602	.0001
313.15	.0363	.6859	.0001
313.15	.0382	.7879	.0001
313.15	.0406	.8769	.0001
313.15	.0456	.9035	.0001
313.15	.0586	.9414	.0001
313.15	.8305	.1695	.0001
313.15	.841	.1565	.0001
313.15	.858	.1369	.0001
313.15	.8774	.1149	.0001
313.15	.8976	.0921	.0001
313.15	.9232	.0635	.0001
313.15	.9372	.0479	.0001
313.15	.9584	.0246	.0001
313.15	.9688	.0152	.0001
313.15	.9754	.0073	.0001
313.15	.9799	0	.0001

System: propyl ethanoate + 2,4-pentanedione + water; phases: Liquid mixture 1, Liquid mixture 2
Fixed: Pressure, kPa = 101
Property: Mass fraction of water (Liquid mixture 1); method: Chromatography
Property: Mass fraction of 2,4-pentanedione (Liquid mixture 2); method: Chromatography
Property: Mass fraction of water (Liquid mixture 2); method: Chromatography
Temperature, K	Mass fraction of 2,4-pentanedione	Mass fraction of water	uncertainty	Mass fraction of 2,4-pentanedione	uncertainty	Mass fraction of water	uncertainty
288.15	0	.978	.001	0	.001	.0145	.001
288.15	.1274	.8676	.001	.8617	.001	.0266	.001
288.15	.1364	.8636	.001	.9696	.001	.0304	.001
298.15	.0076	.9726	.001	.0583	.001	.0159	.001
298.15	.0147	.9667	.001	.093	.001	.0216	.001
298.15	.0284	.9537	.001	.1804	.001	.0224	.001
298.15	.0483	.9356	.001	.3107	.001	.0246	.001
298.15	.0592	.9252	.001	.3524	.001	.0254	.001
298.15	.079	.9073	.001	.4641	.001	.0258	.001
298.15	.0856	.9022	.001	.5821	.001	.0261	.001
298.15	.1133	.8763	.001	.6757	.001	.0267	.001
288.15	.013	.9663	.001	.1027	.001	.0152	.001
298.15	.1224	.8707	.001	.808	.001	.0288	.001
298.15	.1441	.8521	.001	.8809	.001	.0304	.001
313.15	0	.9808	.001	0	.001	.0227	.001
313.15	.0168	.9651	.001	.0928	.001	.0238	.001
313.15	.0291	.9547	.001	.1706	.001	.0253	.001
313.15	.0557	.9296	.001	.3199	.001	.0283	.001
313.15	.0712	.9146	.001	.4051	.001	.0289	.001
313.15	.0965	.8914	.001	.5588	.001	.0313	.001
313.15	.1225	.8683	.001	.6591	.001	.033	.001
313.15	.1368	.8566	.001	.7872	.001	.0339	.001
288.15	.025	.9544	.001	.1575	.001	.0163	.001
313.15	.1501	.8465	.001	.8769	.001	.0379	.001
313.15	.1695	.8305	.001	.9414	.001	.0586	.001
288.15	.0439	.9371	.001	.2684	.001	.0171	.001
288.15	.0569	.9254	.001	.3617	.001	.0184	.001
288.15	.0678	.9171	.001	.4581	.001	.0192	.001
288.15	.0879	.899	.001	.5595	.001	.0212	.001
288.15	.0967	.8927	.001	.6592	.001	.022	.001
288.15	.1121	.88	.001	.7592	.001	.0243	.001

System: propyl ethanoate + water; phases: Liquid mixture 1, Liquid mixture 2
Property: Mass fraction of water (Liquid mixture 1); method: Titration method
Temperature, K	Pressure, kPa	Mass fraction of water	uncertainty
288.15	101	.0139	.0001
288.15	101	.9785	.0001
298.15	101	.0154	.0001
298.15	101	.9795	.0001
313.15	101	.0224	.0001
313.15	101	.9799	.0001
288.15	101	.978	.0001
313.15	101	.9808	.0001

System: propyl ethanoate + water; phases: Liquid mixture 2, Liquid mixture 1
Property: Mass fraction of water (Liquid mixture 2); method: Chromatography
Temperature, K	Pressure, kPa	Mass fraction of water	uncertainty
288.15	101	.0145	.001
313.15	101	.0227	.001

System: 2,4-pentanedione + water; phases: Liquid mixture 1, Liquid mixture 2
Property: Mass fraction of 2,4-pentanedione (Liquid mixture 1); method: Titration method
Temperature, K	Pressure, kPa	Mass fraction of 2,4-pentanedione	uncertainty
298.15	101	.1578	.0001
313.15	101	.9414	.0001
313.15	101	.1695	.0001
288.15	101	.1364	.0001

System: 2,4-pentanedione + water; phases: Liquid mixture 2, Liquid mixture 1
Property: Mass fraction of water (Liquid mixture 2); method: Chromatography
Temperature, K	Pressure, kPa	Mass fraction of water	uncertainty
288.15	101	.0304	.001
313.15	101	.0586	.001
