Measured thermophysical data. Solubility correlation and thermodynamic analysis of two forms of Metaxalone in different pure solvents
Source: Fluid Phase Equilib., 2016, 10.1016/j.fluid.2015.09.013
Compound 1: 5-[(3,5-dimethylphenoxy)methyl]-2-oxazolidinone, C12H15NO3, purity 99.5%
Compound 2: ethanol, C2H6O, purity 99.7%
Compound 3: isopropanol, C3H8O, purity 99.7%
Compound 4: ethyl acetate, C4H8O2, purity 99.5%
Compound 5: toluene, C7H8, purity 99.5%

System: ethanol + 5-[(3,5-dimethylphenoxy)methyl]-2-oxazolidinone; phases: Liquid, Crystal
Fixed: Pressure, kPa = 100
Property: Mole fraction of 5-[(3,5-dimethylphenoxy)methyl]-2-oxazolidinone (Liquid); method: Chromatography
Temperature, K	Mole fraction of 5-[(3,5-dimethylphenoxy)methyl]-2-oxazolidinone	uncertainty
283.15	.0043635	.0015
288.15	.005736	.0015
293.15	.0068088	.0015
298.15	.0082065	.0015
303.15	.0102513	.0015
308.15	.011862	.0015
313.15	.0135296	.0015
318.15	.0164856	.0015
323.15	.0188753	.0015

System: ethanol + 5-[(3,5-dimethylphenoxy)methyl]-2-oxazolidinone; phases: Liquid, Crystal
Fixed: Pressure, kPa = 100
Property: Mole fraction of 5-[(3,5-dimethylphenoxy)methyl]-2-oxazolidinone (Liquid); method: Chromatography
Temperature, K	Mole fraction of 5-[(3,5-dimethylphenoxy)methyl]-2-oxazolidinone	uncertainty
283.15	.0035626	.0015
288.15	.0043399	.0015
293.15	.005014	.0015
298.15	.0062127	.0015
303.15	.0078857	.0015
308.15	.0090682	.0015
313.15	.0107605	.0015
318.15	.0129335	.0015
323.15	.0152587	.0015

System: isopropanol + 5-[(3,5-dimethylphenoxy)methyl]-2-oxazolidinone; phases: Liquid, Crystal
Fixed: Pressure, kPa = 100
Property: Mole fraction of 5-[(3,5-dimethylphenoxy)methyl]-2-oxazolidinone (Liquid); method: Chromatography
Temperature, K	Mole fraction of 5-[(3,5-dimethylphenoxy)methyl]-2-oxazolidinone	uncertainty
283.15	.0031516	.0015
288.15	.0039603	.0015
293.15	.0050726	.0015
298.15	.0061817	.0015
303.15	.0075254	.0015
308.15	.009356	.0015
313.15	.0111737	.0015
318.15	.0137009	.0015
323.15	.0168236	.0015

System: isopropanol + 5-[(3,5-dimethylphenoxy)methyl]-2-oxazolidinone; phases: Liquid, Crystal
Fixed: Pressure, kPa = 100
Property: Mole fraction of 5-[(3,5-dimethylphenoxy)methyl]-2-oxazolidinone (Liquid); method: Chromatography
Temperature, K	Mole fraction of 5-[(3,5-dimethylphenoxy)methyl]-2-oxazolidinone	uncertainty
283.15	.0024616	.0015
288.15	.0032529	.0015
293.15	.0037186	.0015
298.15	.0045684	.0015
303.15	.005579	.0015
308.15	.0070235	.0015
313.15	.0079346	.0015
318.15	.0098791	.0015
323.15	.012217	.0015

System: ethyl acetate + 5-[(3,5-dimethylphenoxy)methyl]-2-oxazolidinone; phases: Liquid, Crystal
Fixed: Pressure, kPa = 100
Property: Mole fraction of 5-[(3,5-dimethylphenoxy)methyl]-2-oxazolidinone (Liquid); method: Chromatography
Temperature, K	Mole fraction of 5-[(3,5-dimethylphenoxy)methyl]-2-oxazolidinone	uncertainty
283.15	.0077555	.0015
288.15	.0086796	.0015
293.15	.010784	.0015
298.15	.0119599	.0015
303.15	.0136528	.0015
308.15	.0153066	.0015
313.15	.0176808	.0015
318.15	.0192608	.0015
323.15	.0231281	.0015

System: ethyl acetate + 5-[(3,5-dimethylphenoxy)methyl]-2-oxazolidinone; phases: Liquid, Crystal
Fixed: Pressure, kPa = 100
Property: Mole fraction of 5-[(3,5-dimethylphenoxy)methyl]-2-oxazolidinone (Liquid); method: Chromatography
Temperature, K	Mole fraction of 5-[(3,5-dimethylphenoxy)methyl]-2-oxazolidinone	uncertainty
283.15	.0058634	.0015
288.15	.0069074	.0015
293.15	.0075143	.0015
298.15	.0085084	.0015
303.15	.0100179	.0015
308.15	.011376	.0015
313.15	.0121973	.0015
318.15	.0144771	.0015
323.15	.0170051	.0015

System: toluene + 5-[(3,5-dimethylphenoxy)methyl]-2-oxazolidinone; phases: Liquid, Crystal
Fixed: Pressure, kPa = 100
Property: Mole fraction of 5-[(3,5-dimethylphenoxy)methyl]-2-oxazolidinone (Liquid); method: Chromatography
Temperature, K	Mole fraction of 5-[(3,5-dimethylphenoxy)methyl]-2-oxazolidinone	uncertainty
283.15	.0012432	.0015
288.15	.0015741	.0015
293.15	.0019188	.0015
298.15	.0023179	.0015
303.15	.0028875	.0015
308.15	.0035686	.0015
313.15	.0042125	.0015
318.15	.0051181	.0015
323.15	.0063476	.0015

System: toluene + 5-[(3,5-dimethylphenoxy)methyl]-2-oxazolidinone; phases: Liquid, Crystal
Fixed: Pressure, kPa = 100
Property: Mole fraction of 5-[(3,5-dimethylphenoxy)methyl]-2-oxazolidinone (Liquid); method: Chromatography
Temperature, K	Mole fraction of 5-[(3,5-dimethylphenoxy)methyl]-2-oxazolidinone	uncertainty
283.15	.0009157	.0015
288.15	.0010767	.0015
293.15	.0011965	.0015
298.15	.0014292	.0015
303.15	.0017327	.0015
308.15	.0020981	.0015
313.15	.0024534	.0015
318.15	.0029863	.0015
323.15	.0035626	.0015
