Measured thermophysical data. Solubility of alpha-form and beta-form L-glutamic acid in different aqueous solvent mixtures
Source: Fluid Phase Equilib., 2010, 10.1016/j.fluid.2010.10.020
Compound 1: glutamic acid, L-, C5H9NO4, purity 99%
Compound 2: glutamic acid, C5H9NO4, purity 99%
Compound 3: ethanol, C2H6O, purity 99%
Compound 4: 1-propanol, C3H8O, purity 99%
Compound 5: acetone, C3H6O, purity 99%
Compound 6: water, H2O, purity 99.8%

System: ethanol + glutamic acid + water; phases: Liquid, Crystal
Fixed: Pressure, kPa = 101.3
Fixed: Temperature, K = 308
Property: Mole fraction of glutamic acid (Liquid); method: Gravimetric Method
Solvent: Amount ratio of component to other component of binary solvent of ethanol	Mole fraction of glutamic acid	uncertainty
.0039	.001382	.00000691
.012	.001251	.000006255
.0202	.001164	.00000582
.0329	.000984	.00000492
.0417	.000909	.000004545
.0646	.000744	.00000372
.0891	.000647	.000003235

System: 1-propanol + glutamic acid + water; phases: Liquid, Crystal
Fixed: Pressure, kPa = 101.3
Fixed: Temperature, K = 308
Property: Mole fraction of glutamic acid (Liquid); method: Gravimetric Method
Solvent: Amount ratio of component to other component of binary solvent of 1-propanol	Mole fraction of glutamic acid	uncertainty
.003	.0014	.000007
.0092	.001306	.00000653
.0155	.00121	.00000605
.0254	.00005	.00000025
.0323	.001006	.00000503
.0503	.00087	.00000435
.0698	.000743	.000003715
.0909	.000679	.000003395

System: acetone + glutamic acid + water; phases: Liquid, Crystal
Fixed: Pressure, kPa = 101.3
Fixed: Temperature, K = 308
Property: Mole fraction of glutamic acid (Liquid); method: Gravimetric Method
Solvent: Amount ratio of component to other component of binary solvent of acetone	Mole fraction of glutamic acid	uncertainty
.0031	.001421	.000007105
.0095	.001334	.00000667
.0161	.001236	.00000618
.0263	.00109	.00000545
.0333	.001047	.000005235
.0519	.00095	.00000475
.072	.000772	.00000386
.0938	.000702	.00000351

System: glutamic acid, L- + glutamic acid + water; phases: Liquid, Crystal
Fixed: Pressure, kPa = 101.3
Property: Mole fraction of glutamic acid (Liquid); method: Gravimetric Method
Temperature, K	Mole fraction of glutamic acid, L-	Mole fraction of glutamic acid	uncertainty
293	.001198	.000856	.00000428
298	.001388	.00104	.0000052
303	.001841	.001223	.000006115
308	.002089	.001516	.00000758
313	.002371	.001833	.000009165
318	.002936	.002077	.000010385
323	.003286	.002443	.000012215
