Measured thermophysical data. High-pressure vapor-liquid equilibria for carbon dioxide + tetrahydrofuran mixtures
Source: Fluid Phase Equilib., 2010, 10.1016/j.fluid.2010.04.018
Compound 1: carbon dioxide, CO2, purity 99.999%
Compound 2: tetrahydrofuran, C4H8O, purity 99.9%

System: tetrahydrofuran + carbon dioxide; phases: Liquid, Gas
Property: Vapor or sublimation pressure, kPa (Liquid); method: Ebulliometric method (Recirculating still)
Mole fraction of carbon dioxide	Temperature, K	Vapor or sublimation pressure, kPa	uncertainty
.388	298.15	2137	1
.47	298.15	2642	1
.588	298.15	3383	1
.703	298.15	4075	1
.828	298.15	4888	1
.941	298.15	5725	1
.983	298.15	6147	1
.301	313.15	2060	1
.428	313.15	3084	1
.542	313.15	4013	1
.665	313.15	5075	1
.788	313.15	6123	1
.881	313.15	6947	1
.921	313.15	7403	1
.938	313.15	7629	1

System: tetrahydrofuran + carbon dioxide; phases: Gas, Liquid
Property: Mole fraction of carbon dioxide (Gas); method: Chromatography
Mole fraction of carbon dioxide	Temperature, K	Mole fraction of carbon dioxide	uncertainty
.388	298.15	.984	.001
.47	298.15	.981	.001
.588	298.15	.987	.001
.703	298.15	.993	.001
.828	298.15	.993	.001
.941	298.15	.996	.001
.983	298.15	.998	.001
.301	313.15	.97	.001
.428	313.15	.971	.001
.542	313.15	.973	.001
.665	313.15	.981	.001
.788	313.15	.985	.001
.881	313.15	.988	.001
.921	313.15	.987	.001
.938	313.15	.986	.001

System: tetrahydrofuran + carbon dioxide; phases: Liquid, Gas
Property: Mass density, kg/m3 (Liquid); method: Vibrating tube method
Temperature, K	Mole fraction of carbon dioxide	Mass density, kg/m3	uncertainty
298.15	.388	906.5	.1
298.15	.47	910.1	.1
298.15	.588	912.1	.1
298.15	.703	906.9	.1
298.15	.828	883.3	.1
298.15	.941	819.3	.1
298.15	.983	763.3	.1
313.15	.301	879.8	.1
313.15	.428	883.6	.1
313.15	.542	883	.1
313.15	.665	873.1	.1
313.15	.788	842.6	.1
313.15	.881	787.7	.1
313.15	.921	737.7	.1
313.15	.938	699.9	.1

System: tetrahydrofuran + carbon dioxide; phases: Gas, Liquid
Property: Mass density, kg/m3 (Gas); method: Vibrating tube method
Temperature, K	Mole fraction of carbon dioxide	Mass density, kg/m3	uncertainty
298.15	.388	48.8	.1
298.15	.47	61.9	.1
298.15	.588	82.3	.1
298.15	.703	104	.1
298.15	.828	136	.1
298.15	.941	182.3	.1
298.15	.983	215.7	.1
313.15	.301	41.5	.1
313.15	.428	66.3	.1
313.15	.542	90.7	.1
313.15	.665	124.5	.1
313.15	.788	168.9	.1
313.15	.881	218.8	.1
313.15	.921	258.1	.1
313.15	.938	287.2	.1
