Measured thermophysical data. Solubility and limiting activity coefficient of simvastatin in different  organic solvents
Source: Fluid Phase Equilib., 2009, 10.1016/j.fluid.2009.03.006
Compound 1: simvastatin, C25H38O5, purity 99.7%
Compound 2: methyl ethanoate, C3H6O2
Compound 3: ethyl ethanoate, C4H8O2
Compound 4: 1-methylethyl ethanoate, C5H10O2
Compound 5: butyl ethanoate, C6H12O2
Compound 6: 2-methylpropyl ethanoate, C6H12O2
Compound 7: 1-methylpropyl ethanoate, C6H12O2
Compound 8: 1,1-dimethylethyl ethanoate, C6H12O2
Compound 9: ethanol, C2H6O
Compound 10: 1-propanol, C3H8O
Compound 11: 1-butanol, C4H10O
Compound 12: (RS)-2-butanol, C4H10O
Compound 13: 1-pentanol, C5H12O
Compound 14: 1-hexanol, C6H14O
Compound 15: 1-octanol, C8H18O
Compound 16: propyl ethanoate, C5H10O2

System: simvastatin; phases: Crystal, Liquid, Air at 1 atmosphere
Property: Normal melting temperature, K (Crystal); method: DSC/DTA
Normal melting temperature, K	uncertainty
412.65	.5

System: simvastatin; phases: Crystal, Liquid, Air at 1 atmosphere
Property: Molar enthalpy of transition or fusion, kJ/mol (Crystal); method: DSC/DTA
Molar enthalpy of transition or fusion, kJ/mol	uncertainty
32.169	.5

System: methyl ethanoate + simvastatin; phases: Liquid, Crystal
Fixed: Pressure, kPa = 101
Property: Mole fraction of methyl ethanoate (Liquid); method: Chromatography
Temperature, K	Mole fraction of methyl ethanoate	uncertainty
279.1	.01734	.000867
282.2	.01803	.0009015
285.3	.01886	.000943
288.5	.01946	.000973
291.3	.02038	.001019
296.1	.02204	.001102
301	.02366	.001183
305.8	.0261	.001305
310.7	.02889	.0014445
315.5	.0321	.001605

System: ethyl ethanoate + simvastatin; phases: Liquid, Crystal
Fixed: Pressure, kPa = 101
Property: Mole fraction of ethyl ethanoate (Liquid); method: Chromatography
Temperature, K	Mole fraction of ethyl ethanoate	uncertainty
279.1	.02086	.001043
282.2	.02184	.001092
285.3	.02286	.001143
288.5	.02436	.001218
291.3	.02579	.0012895
296.1	.02815	.0014075
301	.03061	.0015305
305.8	.03342	.001671
310.7	.03664	.001832
315.5	.04033	.0020165

System: 1-methylethyl ethanoate + simvastatin; phases: Liquid, Crystal
Fixed: Pressure, kPa = 101
Property: Mole fraction of 1-methylethyl ethanoate (Liquid); method: Chromatography
Temperature, K	Mole fraction of 1-methylethyl ethanoate	uncertainty
279.1	.01648	.000824
282.2	.01729	.0008645
285.3	.01853	.0009265
288.5	.01977	.0009885
291.3	.02095	.0010475
296.1	.02327	.0011635
301	.02583	.0012915
305.8	.02907	.0014535
310.7	.03208	.001604
315.5	.03552	.001776

System: butyl ethanoate + simvastatin; phases: Liquid, Crystal
Fixed: Pressure, kPa = 101
Property: Mole fraction of butyl ethanoate (Liquid); method: Chromatography
Temperature, K	Mole fraction of butyl ethanoate	uncertainty
279.1	.02294	.001147
282.2	.02421	.0012105
285.3	.02551	.0012755
288.5	.02723	.0013615
291.3	.02857	.0014285
296.1	.03116	.001558
301	.03452	.001726
305.8	.03749	.0018745
310.7	.04088	.002044
315.5	.04476	.002238

System: 2-methylpropyl ethanoate + simvastatin; phases: Liquid, Crystal
Fixed: Pressure, kPa = 101
Property: Mole fraction of 2-methylpropyl ethanoate (Liquid); method: Chromatography
Temperature, K	Mole fraction of 2-methylpropyl ethanoate	uncertainty
279.1	.01837	.0009185
282.2	.01916	.000958
285.3	.02032	.001016
288.5	.02127	.0010635
291.3	.02218	.001109
296.1	.02417	.0012085
301	.02645	.0013225
305.8	.02907	.0014535
310.7	.03208	.001604
315.5	.03552	.001776

System: 1-methylpropyl ethanoate + simvastatin; phases: Liquid, Crystal
Fixed: Pressure, kPa = 101
Property: Mole fraction of 1-methylpropyl ethanoate (Liquid); method: Chromatography
Temperature, K	Mole fraction of 1-methylpropyl ethanoate	uncertainty
279.1	.02016	.001008
282.2	.02073	.0010365
285.3	.02166	.001083
288.5	.0224	.00112
291.3	.02335	.0011675
296.1	.02509	.0012545
301	.02677	.0013385
305.8	.02933	.0014665
310.7	.03225	.0016125
315.5	.0356	.00178

System: 1,1-dimethylethyl ethanoate + simvastatin; phases: Liquid, Crystal
Fixed: Pressure, kPa = 101
Property: Mole fraction of 1,1-dimethylethyl ethanoate (Liquid); method: Chromatography
Temperature, K	Mole fraction of 1,1-dimethylethyl ethanoate	uncertainty
279.1	.01636	.000818
282.2	.01725	.0008625
285.3	.01819	.0009095
288.5	.01938	.000969
291.3	.02031	.0010155
296.1	.02184	.001092
301	.02356	.001178
305.8	.02612	.001306
310.7	.02906	.001453
315.5	.03244	.001622

System: ethanol + simvastatin; phases: Liquid, Crystal
Fixed: Pressure, kPa = 101
Property: Mole fraction of ethanol (Liquid); method: Chromatography
Temperature, K	Mole fraction of ethanol	uncertainty
279.1	.01218	.000609
282.2	.01293	.0006465
285.3	.01387	.0006935
288.5	.01495	.0007475
291.3	.01623	.0008115
296.1	.01848	.000924
301	.02056	.001028
305.8	.02306	.001153
310.7	.0259	.001295
315.5	.02923	.0014615

System: 1-propanol + simvastatin; phases: Liquid, Crystal
Fixed: Pressure, kPa = 101
Property: Mole fraction of 1-propanol (Liquid); method: Chromatography
Temperature, K	Mole fraction of 1-propanol	uncertainty
279.1	.01648	.000824
282.2	.01729	.0008645
285.3	.01841	.0009205
288.5	.01974	.000987
291.3	.02095	.0010475
296.1	.02339	.0011695
301	.02625	.0013125
305.8	.0296	.00148
310.7	.03353	.0016765
315.5	.03813	.0019065

System: 1-butanol + simvastatin; phases: Liquid, Crystal
Fixed: Pressure, kPa = 101
Property: Mole fraction of 1-butanol (Liquid); method: Chromatography
Temperature, K	Mole fraction of 1-butanol	uncertainty
279.1	.01774	.000887
282.2	.01881	.0009405
285.3	.01964	.000982
288.5	.02106	.001053
291.3	.02225	.0011125
296.1	.02409	.0012045
301	.02651	.0013255
305.8	.02887	.0014435
310.7	.03299	.0016495
315.5	.03781	.0018905

System: (RS)-2-butanol + simvastatin; phases: Liquid, Crystal
Fixed: Pressure, kPa = 101
Property: Mole fraction of (RS)-2-butanol (Liquid); method: Chromatography
Temperature, K	Mole fraction of (RS)-2-butanol	uncertainty
279.1	.01852	.000926
282.2	.01929	.0009645
285.3	.02037	.0010185
288.5	.02153	.0010765
291.3	.02243	.0011215
296.1	.02334	.001167
301	.02555	.0012775
305.8	.02809	.0014045
310.7	.031	.00155
315.5	.03433	.0017165

System: 1-pentanol + simvastatin; phases: Liquid, Crystal
Fixed: Pressure, kPa = 101
Property: Mole fraction of 1-pentanol (Liquid); method: Chromatography
Temperature, K	Mole fraction of 1-pentanol	uncertainty
279.1	.01834	.000917
282.2	.01982	.000991
285.3	.02121	.0010605
288.5	.02279	.0011395
291.3	.02443	.0012215
296.1	.02728	.001364
301	.03058	.001529
305.8	.03485	.0017425
310.7	.03833	.0019165
315.5	.04239	.0021195

System: 1-hexanol + simvastatin; phases: Liquid, Crystal
Fixed: Pressure, kPa = 101
Property: Mole fraction of 1-hexanol (Liquid); method: Chromatography
Temperature, K	Mole fraction of 1-hexanol	uncertainty
279.1	.02151	.0010755
282.2	.0224	.00112
285.3	.02466	.001233
288.5	.02641	.0013205
291.3	.02822	.001411
296.1	.03161	.0015805
301	.03592	.001796
305.8	.03909	.0019545
310.7	.04436	.002218
315.5	.04981	.0024905

System: 1-octanol + simvastatin; phases: Liquid, Crystal
Fixed: Pressure, kPa = 101
Property: Mole fraction of 1-octanol (Liquid); method: Chromatography
Temperature, K	Mole fraction of 1-octanol	uncertainty
279.1	.02081	.0010405
282.2	.02182	.001091
285.3	.02259	.0011295
288.5	.02335	.0011675
291.3	.02508	.001254
296.1	.02741	.0013705
301	.02992	.001496
305.8	.03264	.001632
310.7	.03604	.001802
315.5	.03889	.0019445

System: propyl ethanoate + simvastatin; phases: Liquid, Crystal
Fixed: Pressure, kPa = 101
Property: Mole fraction of simvastatin (Liquid); method: Chromatography
Temperature, K	Mole fraction of simvastatin	uncertainty
279.1	.02086	.001043
282.2	.02164	.001082
285.3	.02259	.0011295
288.5	.02355	.0011775
291.3	.0246	.00123
296.1	.02646	.001323
301	.02849	.0014245
305.8	.03108	.001554
310.7	.03405	.0017025
315.5	.03745	.0018725
