Measured thermophysical data. Solubility of propanoic acid 3-(hydroxyphenylphosphinyl)-sodium salts in different solvent
Source: Fluid Phase Equilib., 2013, 10.1016/j.fluid.2013.02.001
Compound 1: sodium chloride, ClNa, purity 99.8%
Compound 2: potassium bromide, BrK, purity 99.8%
Compound 3: methyl alcohol, CH4O, purity 99.5%
Compound 4: ethanol, C2H6O, purity 99.5%
Compound 5: acetone, C3H6O, purity 99.5%
Compound 6: ethanoic acid, C2H4O2, purity 99.5%
Compound 7: ethyl ethanoate, C4H8O2, purity 99.5%
Compound 8: water, H2O, purity 99.8%
Compound 9: propanoic acid, 3-(hydroxyphenylphosphinyl)-, sodium salt (1:1), C9H10NaO4P, purity 99.5%
Compound 10: propanoic acid, 3-(hydroxyphenylphosphinyl)-, disodium salt (9CI), C9H9Na2O4P, purity 99.3%

System: water + propanoic acid, 3-(hydroxyphenylphosphinyl)-, sodium salt (1:1); phases: Liquid, Crystal
Fixed: Pressure, kPa = 101
Property: Mole fraction of propanoic acid, 3-(hydroxyphenylphosphinyl)-, sodium salt (1:1) (Liquid); method: Phase equilibration
Temperature, K	Mole fraction of propanoic acid, 3-(hydroxyphenylphosphinyl)-, sodium salt (1:1)	uncertainty
293.15	.01962	.00006867
298.15	.02007	.000070245
303.15	.0214	.0000749
308.15	.02218	.00007763
313.15	.02322	.00008127
318.15	.02482	.00008687
323.15	.02635	.000092225
328.15	.0277	.00009695
333.15	.02951	.000103285
343.15	.0316	.0001106

System: methyl alcohol + propanoic acid, 3-(hydroxyphenylphosphinyl)-, sodium salt (1:1); phases: Liquid, Crystal
Fixed: Pressure, kPa = 101
Property: Mole fraction of propanoic acid, 3-(hydroxyphenylphosphinyl)-, sodium salt (1:1) (Liquid); method: Phase equilibration
Temperature, K	Mole fraction of propanoic acid, 3-(hydroxyphenylphosphinyl)-, sodium salt (1:1)	uncertainty
293.15	.00612	.00002142
298.15	.00671	.000023485
303.15	.00719	.000025165
308.15	.00779	.000027265
313.15	.00831	.000029085
318.15	.009	.0000315
323.15	.00993	.000034755

System: ethanoic acid + propanoic acid, 3-(hydroxyphenylphosphinyl)-, sodium salt (1:1); phases: Liquid, Crystal
Fixed: Pressure, kPa = 101
Property: Mole fraction of propanoic acid, 3-(hydroxyphenylphosphinyl)-, sodium salt (1:1) (Liquid); method: Phase equilibration
Temperature, K	Mole fraction of propanoic acid, 3-(hydroxyphenylphosphinyl)-, sodium salt (1:1)	uncertainty
293.15	.01688	.00005908
298.15	.02051	.000071785
303.15	.02252	.00007882
308.15	.02642	.00009247
313.15	.02826	.00009891
318.15	.0312	.0001092
323.15	.03566	.00012481
328.15	.04045	.000141575
333.15	.0471	.00016485
343.15	.06202	.00021707

System: ethanol + propanoic acid, 3-(hydroxyphenylphosphinyl)-, sodium salt (1:1); phases: Liquid, Crystal
Fixed: Pressure, kPa = 101
Property: Mole fraction of propanoic acid, 3-(hydroxyphenylphosphinyl)-, sodium salt (1:1) (Liquid); method: Phase equilibration
Temperature, K	Mole fraction of propanoic acid, 3-(hydroxyphenylphosphinyl)-, sodium salt (1:1)	uncertainty
293.15	.00065	.000002275
298.15	.00076	.00000266
303.15	.00095	.000003325
308.15	.00106	.00000371
313.15	.00122	.00000427
318.15	.00166	.00000581
323.15	.00199	.000006965
328.15	.00223	.000007805
333.15	.00273	.000009555
343.15	.00413	.000014455

System: acetone + propanoic acid, 3-(hydroxyphenylphosphinyl)-, sodium salt (1:1); phases: Liquid, Crystal
Fixed: Pressure, kPa = 101
Property: Mole fraction of propanoic acid, 3-(hydroxyphenylphosphinyl)-, sodium salt (1:1) (Liquid); method: Phase equilibration
Temperature, K	Mole fraction of propanoic acid, 3-(hydroxyphenylphosphinyl)-, sodium salt (1:1)	uncertainty
293.15	.00007	.000000245
298.15	.00011	.000000385
303.15	.00016	.00000056
308.15	.00024	.00000084
313.15	.00035	.000001225
318.15	.00051	.000001785
323.15	.00075	.000002625

System: ethyl ethanoate + propanoic acid, 3-(hydroxyphenylphosphinyl)-, sodium salt (1:1); phases: Liquid, Crystal
Fixed: Pressure, kPa = 101
Property: Mole fraction of propanoic acid, 3-(hydroxyphenylphosphinyl)-, sodium salt (1:1) (Liquid); method: Phase equilibration
Temperature, K	Mole fraction of propanoic acid, 3-(hydroxyphenylphosphinyl)-, sodium salt (1:1)	uncertainty
293.15	.00039	.000001365
298.15	.00051	.000001785
303.15	.000685	.0000023975
308.15	.00096	.00000336
313.15	.00117	.000004095
318.15	.00165	.000005775
323.15	.00204	.00000714
328.15	.00285	.000009975
333.15	.00384	.00001344
343.15	.00602	.00002107

System: water + propanoic acid, 3-(hydroxyphenylphosphinyl)-, disodium salt (9CI); phases: Liquid, Crystal
Fixed: Pressure, kPa = 101
Property: Mole fraction of propanoic acid, 3-(hydroxyphenylphosphinyl)-, disodium salt (9CI) (Liquid); method: Phase equilibration
Temperature, K	Mole fraction of propanoic acid, 3-(hydroxyphenylphosphinyl)-, disodium salt (9CI)	uncertainty
293.15	.9045	.00316575
298.15	.9063	.00317205
303.15	.9083	.00317905
308.15	.9095	.00318325
313.15	.911	.0031885
318.15	.9121	.00319235
323.15	.9129	.00319515
328.15	.9152	.0032032
333.15	.9164	.0032074
343.15	.9181	.00321335

System: methyl alcohol + propanoic acid, 3-(hydroxyphenylphosphinyl)-, disodium salt (9CI); phases: Liquid, Crystal
Fixed: Pressure, kPa = 101
Property: Mole fraction of propanoic acid, 3-(hydroxyphenylphosphinyl)-, disodium salt (9CI) (Liquid); method: Phase equilibration
Temperature, K	Mole fraction of propanoic acid, 3-(hydroxyphenylphosphinyl)-, disodium salt (9CI)	uncertainty
293.15	.022	.000077
298.15	.0226	.0000791
303.15	.0228	.0000798
308.15	.023	.0000805
313.15	.0234	.0000819
318.15	.024	.000084
323.15	.0244	.0000854

System: ethanoic acid + propanoic acid, 3-(hydroxyphenylphosphinyl)-, disodium salt (9CI); phases: Liquid, Crystal
Fixed: Pressure, kPa = 101
Property: Mole fraction of propanoic acid, 3-(hydroxyphenylphosphinyl)-, disodium salt (9CI) (Liquid); method: Phase equilibration
Temperature, K	Mole fraction of propanoic acid, 3-(hydroxyphenylphosphinyl)-, disodium salt (9CI)	uncertainty
293.15	.5431	.00190085
298.15	.5545	.00194075
303.15	.5692	.0019922
308.15	.5812	.0020342
313.15	.6027	.00210945
318.15	.6264	.0021924
323.15	.6438	.0022533
328.15	.6632	.0023212
333.15	.7031	.00246085
343.15	.7425	.00259875

System: ethanol + propanoic acid, 3-(hydroxyphenylphosphinyl)-, disodium salt (9CI); phases: Liquid, Crystal
Fixed: Pressure, kPa = 101
Property: Mole fraction of propanoic acid, 3-(hydroxyphenylphosphinyl)-, disodium salt (9CI) (Liquid); method: Phase equilibration
Temperature, K	Mole fraction of propanoic acid, 3-(hydroxyphenylphosphinyl)-, disodium salt (9CI)	uncertainty
293.15	.0000703	.00000024605
298.15	.000097	.0000003395
303.15	.0001382	.0000004837
308.15	.0001974	.0000006909
313.15	.000264	.000000924
318.15	.0003521	.00000123235
323.15	.0005053	.00000176855
328.15	.0007276	.0000025466
333.15	.0009257	.00000323995
343.15	.00164	.00000574

System: acetone + propanoic acid, 3-(hydroxyphenylphosphinyl)-, disodium salt (9CI); phases: Liquid, Crystal
Fixed: Pressure, kPa = 101
Property: Mole fraction of propanoic acid, 3-(hydroxyphenylphosphinyl)-, disodium salt (9CI) (Liquid); method: Phase equilibration
Temperature, K	Mole fraction of propanoic acid, 3-(hydroxyphenylphosphinyl)-, disodium salt (9CI)	uncertainty
293.15	.0000366	.0000001281
298.15	.0000389	.00000013615
303.15	.0000413	.00000014455
308.15	.0000439	.00000015365
313.15	.0000462	.0000001617
318.15	.0000483	.00000016905
323.15	.0000524	.0000001834

System: ethanol + water + propanoic acid, 3-(hydroxyphenylphosphinyl)-, sodium salt (1:1); phases: Liquid, Crystal
Fixed: Pressure, kPa = 101
Property: Mole fraction of water (Liquid); method: Phase equilibration
Solvent: Mole fraction of ethanol	Temperature, K	Mole fraction of water	uncertainty
.0416	293.15	.03178	.000098518
.0416	298.15	.03299	.000102269
.0416	303.15	.0354	.00010974
.0416	308.15	.03796	.000117676
.0416	313.15	.0412	.00012772
.0416	318.15	.04408	.000136648
.0416	323.15	.04743	.000147033
.0416	328.15	.05148	.000159588
.0416	333.15	.05399	.000167369
.0416	343.15	.06147	.000190557
.1434	293.15	.03317	.000102827
.1434	298.15	.03494	.000108314
.1434	303.15	.03694	.000114514
.1434	308.15	.03942	.000122202
.1434	313.15	.04333	.000134323
.1434	318.15	.04741	.000146971
.1434	323.15	.05079	.000157449
.1434	328.15	.05564	.000172484
.1434	333.15	.0607	.00018817
.1434	343.15	.0693	.00021483
.2809	293.15	.02553	.000079143
.2809	298.15	.02933	.000090923
.2809	303.15	.03265	.000101215
.2809	308.15	.03593	.000111383
.2809	313.15	.03908	.000121148
.2809	318.15	.04203	.000130293
.2809	323.15	.04965	.000153915
.2809	328.15	.0538	.00016678
.2809	333.15	.05989	.000185659
.2809	343.15	.07068	.000219108
.4769	293.15	.0131	.00004061
.4769	298.15	.01508	.000046748
.4769	303.15	.01736	.000053816
.4769	308.15	.02004	.000062124
.4769	313.15	.02411	.000074741
.4769	318.15	.02839	.000088009
.4769	323.15	.03452	.000107012
.4769	328.15	.04213	.000130603
.4769	333.15	.04761	.000147591
.4769	343.15	.06082	.000188542
.089	293.15	.02499	.000077469
.089	298.15	.02788	.000086428
.089	303.15	.03126	.000096906
.089	308.15	.03277	.000101587
.089	313.15	.03589	.000111259
.089	318.15	.04083	.000126573
.089	323.15	.04718	.000146258
.089	328.15	.05217	.000161727
.089	333.15	.05754	.000178374
.089	343.15	.06697	.000207607
.2066	293.15	.03274	.000101494
.2066	298.15	.03543	.000109833
.2066	303.15	.03807	.000118017
.2066	308.15	.04079	.000126449
.2066	313.15	.04442	.000137702
.2066	318.15	.04807	.000149017
.2066	323.15	.05289	.000163959
.2066	328.15	.05721	.000177351
.2066	333.15	.06587	.000204197
.2066	343.15	.07969	.000247039
.3695	293.15	.02393	.000074183
.3695	298.15	.02601	.000080631
.3695	303.15	.02879	.000089249
.3695	308.15	.03156	.000097836
.3695	313.15	.03407	.000105617
.3695	318.15	.03747	.000116157
.3695	323.15	.04095	.000126945
.3695	328.15	.04439	.000137609
.3695	333.15	.04761	.000147591
.3695	343.15	.05351	.000165881
.6098	293.15	.00615	.000019065
.6098	298.15	.00722	.000022382
.6098	303.15	.00867	.000026877
.6098	308.15	.00981	.000030411
.6098	313.15	.01119	.000034689
.6098	318.15	.01501	.000046531
.6098	323.15	.01615	.000050065
.6098	328.15	.02047	.000063457
.6098	333.15	.02324	.000072044
.6098	343.15	.0347	.00010757
