Measured thermophysical data. Heat capacities and the two-point scaling analysis of short-chain surfactant solutions
Source: Fluid Phase Equilib., 2013, 10.1016/j.fluid.2013.08.005
Compound 1: hexyl trimethyl ammonium bromide, C9H22BrN, purity 98%
Compound 2: octyl trimethyl ammonium bromide, C11H26BrN, purity 98%
Compound 3: water, H2O

System: water; phases: Liquid
Property: Molar heat capacity at constant pressure, J/K/mol (Liquid); method: Large sample (1 g) DSC
Temperature, K	Pressure, kPa	Molar heat capacity at constant pressure, J/K/mol	uncertainty
298.15	101	75.368725408	.37684362704
303.15	101	75.33990096	.3766995048
308.15	101	75.329091792	.37664545896
313.15	101	75.338099432	.37669049716
298.15	101	75.350710128	.37675355064
303.15	101	75.32188568	.3766094284
308.15	101	75.316481096	.37658240548
313.15	101	75.332694848	.37666347424

System: water; phases: Liquid
Property: Electrical conductivity, S/m (Liquid); method: Alternating current cell with electrodes
Pressure, kPa	Temperature, K	Electrical conductivity, S/m	uncertainty
101	298.15	.23854	.0047708

System: water; phases: Liquid
Property: Mass density, kg/m3 (Liquid); method: Vibrating tube method
Pressure, kPa	Temperature, K	Mass density, kg/m3	uncertainty
101	298.15	997.05	.02

System: hexyl trimethyl ammonium bromide + water; phases: Liquid
Fixed: Pressure, kPa = 101
Property: Molar heat capacity at constant pressure, J/K/mol (Liquid); method: Large sample (1 g) DSC
Temperature, K	Molality, mol/kg of hexyl trimethyl ammonium bromide	Molar heat capacity at constant pressure, J/K/mol	uncertainty
298.15	0	75.368725408	.37684362704
298.15	.01002	75.4196886596651	.377098443298325
298.15	.02406	75.5722365102694	.377861182551347
298.15	.03	75.6479242255898	.378239621127949
298.15	.03989	75.7211101719518	.378605550859759
298.15	.045	75.70192773727	.37850963868635
298.15	.04985	75.784079511687	.378920397558435
298.15	.05497	75.817564592185	.379087822960925
298.15	.05996	75.8854119599283	.379427059799641
298.15	.07507	75.9720079811122	.379860039905561
298.15	.07976	76.0368229834299	.380184114917149
298.15	.09	76.1318858884488	.380659429442244
298.15	.09694	76.1392511555676	.380696255777838
298.15	.10999	76.3098712471444	.381549356235722
298.15	.1199	76.371248577865	.381856242889325
298.15	.12512	76.3882786428822	.381941393214411
298.15	.13012	76.522036595402	.38261018297701
298.15	.14	76.5804374931561	.382902187465781
298.15	.15022	76.5878879968013	.382939439984007
298.15	.17512	76.789745232352	.38394872616176
298.15	.19929	76.9953456234348	.384976728117174
298.15	.2248	77.2080152237087	.386040076118543
298.15	.25074	77.4118127633625	.387059063816812
298.15	.27565	77.5941078825071	.387970539412535
298.15	.28011	77.6533458943506	.388266729471753
298.15	.28506	77.7103679248986	.388551839624493
298.15	.2996	77.8191534880939	.389095767440469
298.15	.32219	78.0050906582783	.390025453291392
298.15	.33108	78.0606877557131	.390303438778566
298.15	.35115	78.208848803426	.39104424401713
298.15	.40016	78.593135989876	.39296567994938
298.15	.42578	78.8497642402718	.394248821201359
298.15	.45027	78.9958154032133	.394979077016067
298.15	.49984	79.3671544127979	.39683577206399
298.15	.52633	79.5756978454872	.397878489227436
298.15	.5513	79.7240557093934	.398620278546967
298.15	.5742	79.9449243168282	.399724621584141
298.15	.60068	80.1535404651244	.400767702325622
298.15	.65162	80.550089635792	.40275044817896
298.15	.70103	80.898905984466	.40449452992233
298.15	.75167	81.2784265773622	.406392132886811
298.15	.80159	81.6614757029025	.408307378514512
298.15	.88421	82.2760109627498	.411380054813749
298.15	.94958	82.7669358519628	.413834679259814
298.15	.9915	83.0131992657359	.415065996328679
303.15	0	75.33990096	.3766995048
303.15	.01002	75.3926099261236	.376963049630618
303.15	.02406	75.5468900651747	.377734450325874
303.15	.03	75.6189215948753	.378094607974376
303.15	.03989	75.6956815086976	.378478407543488
303.15	.045	75.6764725436031	.378382362718016
303.15	.04985	75.7567791155997	.378783895577999
303.15	.05497	75.790235725244	.37895117862622
303.15	.05996	75.8617028980552	.379308514490276
303.15	.07507	75.9482261394171	.379741130697085
303.15	.07976	76.024005216762	.38012002608381
303.15	.09	76.111701975196	.38055850987598
303.15	.09694	76.1172015136084	.380586007568042
303.15	.10999	76.2896059569844	.381448029784922
303.15	.1199	76.3509429669602	.381754714834801
303.15	.12512	76.3624081145306	.381812040572653
303.15	.13012	76.5072386478383	.382536193239192
303.15	.14	76.5581967504006	.382790983752003
303.15	.15022	76.569316283618	.38284658141809
303.15	.17512	76.7766806733245	.383883403366623
303.15	.19929	76.9784680816498	.384892340408249
303.15	.2248	77.1910530566186	.385955265283093
303.15	.25074	77.400447337063	.387002236685315
303.15	.27565	77.5826874672764	.387913437336382
303.15	.28011	77.641915638834	.38820957819417
303.15	.28506	77.6951130248079	.388475565124039
303.15	.2996	77.8019436300883	.389009718150442
303.15	.32219	77.9954881407785	.389977440703893
303.15	.33108	78.0549164551422	.390274582275711
303.15	.35115	78.2069176730572	.391034588365286
303.15	.40016	78.585339631868	.39292669815934
303.15	.42578	78.8399719146663	.394199859573331
303.15	.45027	78.9899131456369	.394949565728184
303.15	.49984	79.3671544127979	.39683577206399
303.15	.52633	79.5697123100962	.397848561550481
303.15	.5513	79.7300685350748	.398650342675374
303.15	.5742	79.9469369275808	.399734684637904
303.15	.60068	80.1575849469321	.400787924734661
303.15	.65162	80.5582525999567	.402791262999783
303.15	.70103	80.9071405984044	.404535702992022
303.15	.75167	81.2888114733039	.406444057366519
303.15	.80159	81.6656657270541	.408328328635271
303.15	.88421	82.2866348988795	.411433174494397
303.15	.94958	82.7776772717272	.413888386358636
303.15	.9915	83.0240158814899	.415120079407449
308.15	0	75.329091792	.37664545896
308.15	.01002	75.381778432707	.376908892163535
308.15	.02406	75.5396482237191	.377698241118595
308.15	.03	75.6116709371966	.378058354685983
308.15	.03989	75.6865998432496	.378432999216248
308.15	.045	75.674654315484	.37837327157742
308.15	.04985	75.7476789835707	.378738394917853
308.15	.05497	75.782948027393	.378914740136965
308.15	.05996	75.8562315760844	.379281157880422
308.15	.07507	75.9427380221029	.379713690110514
308.15	.07976	76.020342997714	.38010171498857
308.15	.09	76.1061972715816	.380530986357908
308.15	.09694	76.1135265732818	.380567632866409
308.15	.10999	76.284079059668	.38142039529834
308.15	.1199	76.3472510377048	.381736255188524
308.15	.12512	76.3605602196483	.381802801098242
308.15	.13012	76.5053889043928	.382526944521964
308.15	.14	76.5544899599413	.382772449799707
308.15	.15022	76.5674591122996	.382837295561498
308.15	.17512	76.7710815765985	.383855407882992
308.15	.19929	76.9803433640704	.384901716820352
308.15	.2248	77.1910530566186	.385955265283093
308.15	.25074	77.4099185256459	.38704959262823
308.15	.27565	77.5864942723533	.387932471361766
308.15	.28011	77.662871107281	.388314355536405
308.15	.28506	77.6932061622965	.388466030811483
308.15	.2996	77.8038558365334	.389019279182667
308.15	.32219	78.0127726722782	.390063863361391
308.15	.33108	78.0645352894271	.390322676447135
308.15	.35115	78.2127110641634	.391063555320817
308.15	.40016	78.6028814373861	.393014407186931
308.15	.42578	78.8438888449085	.394219444224542
308.15	.45027	78.9977828224055	.394988914112027
308.15	.49984	79.3790675273121	.396895337636561
308.15	.52633	79.5816833808783	.397908416904391
308.15	.5513	79.7461027368918	.398730513684459
308.15	.5742	79.9590125920967	.399795062960484
308.15	.60068	80.1778073559707	.400889036779853
308.15	.65162	80.5725377872448	.402862688936224
308.15	.70103	80.9236098262812	.404618049131406
308.15	.75167	81.307504285999	.406537521429995
308.15	.80159	81.6824258236606	.408412129118303
308.15	.88421	82.3057579839129	.411528789919564
308.15	.94958	82.7927152593972	.413963576296986
308.15	.9915	83.0456491129979	.415228245564989
313.15	0	75.338099432	.37669049716
313.15	.01002	75.3853889305125	.376926944652563
313.15	.02406	75.5487005255386	.377743502627693
313.15	.03	75.6279849169736	.378139924584868
313.15	.03989	75.693865175608	.37846932587804
313.15	.045	75.6982912810319	.37849145640516
313.15	.04985	75.7567791155997	.378783895577999
313.15	.05497	75.7957014986322	.378978507493161
313.15	.05996	75.8671742200259	.379335871100129
313.15	.07507	75.9518848842933	.379759424421466
313.15	.07976	76.024005216762	.38012002608381
313.15	.09	76.1172066788104	.380586033394052
313.15	.09694	76.1263888644247	.380631944322124
313.15	.10999	76.2969751534062	.381484875767031
313.15	.1199	76.3601727900987	.381800863950494
313.15	.12512	76.3790391684709	.381895195842355
313.15	.13012	76.5183371085111	.382591685542555
313.15	.14	76.571170517008	.38285585258504
313.15	.15022	76.5841736541647	.382920868270823
313.15	.17512	76.7766806733245	.383883403366623
313.15	.19929	77.0009714706965	.385004857353483
313.15	.2248	77.2061305384764	.386030652692382
313.15	.25074	77.4345436159614	.387172718079807
313.15	.27565	77.6074317002762	.388037158501381
313.15	.28011	77.7104971719334	.388552485859667
313.15	.28506	77.7084610623873	.388542305311936
313.15	.2996	77.8268023138741	.389134011569371
313.15	.32219	78.0569442527775	.390284721263888
313.15	.33108	78.0895442585678	.390447721292839
313.15	.35115	78.2262289767446	.391131144883723
313.15	.40016	78.6438123169285	.393219061584643
313.15	.42578	78.8634734961194	.394317367480597
313.15	.45027	79.0233592719034	.395116796359517
313.15	.49984	79.406864794512	.39703432397256
313.15	.52633	79.6076207009061	.398038103504531
313.15	.5513	79.7721583148444	.398860791574222
313.15	.5742	79.9831639211285	.399915819605643
313.15	.60068	80.2162299331439	.401081149665719
313.15	.65162	80.5949859386976	.402974929693488
313.15	.70103	80.9483136680965	.404741568340482
313.15	.75167	81.3345050154474	.406672525077237
313.15	.80159	81.7117559927219	.408558779963609
313.15	.88421	82.3333802178501	.41166690108925
313.15	.94958	82.8141980989258	.414070990494629
313.15	.9915	83.0759356371091	.415379678185546

System: hexyl trimethyl ammonium bromide + water; phases: Liquid
Fixed: Pressure, kPa = 101
Fixed: Temperature, K = 298.15
Property: Electrical conductivity, S/m (Liquid); method: Alternating current cell with electrodes
Molality, mol/kg of hexyl trimethyl ammonium bromide	Electrical conductivity, S/m	uncertainty
0	.23854	.0047708
.02501	.44636	.0089272
.05001	.64064	.0128128
.07505	.98995	.019799
.12502	1.02269	.0204538
.13	1.15028	.0230056
.15	1.30139	.0260278
.17507	1.72216	.0344432
.25002	1.84554	.0369108
.2751	2.08322	.0416644
.32513	2.19637	.0439274
.35009	2.409	.04818
.40014	2.50898	.0501796
.42503	2.78665	.055733
.50008	3.52987	.0705974
.75028	3.82654	.0765308
.8791	4.06574	.0813148
1.00031	.23854	.0047708

System: hexyl trimethyl ammonium bromide + water; phases: Liquid
Fixed: Pressure, kPa = 101
Fixed: Temperature, K = 298.15
Property: Mass density, kg/m3 (Liquid); method: Vibrating tube method
Molality, mol/kg of hexyl trimethyl ammonium bromide	Mass density, kg/m3	uncertainty
0	997.05	.02
.02501	997.79	.02
.05001	998.57	.02
.07505	999.34	.02
.12502	1000.88	.02
.13	1001.05	.02
.15	1001.64	.02
.17507	1002.41	.02
.25002	1004.69	.02
.2751	1005.39	.02
.32513	1006.85	.02
.35009	1007.63	.02
.40014	1009.06	.02
.42503	1009.77	.02
.50008	1011.89	.02
.75028	1018.71	.02
.8791	1021.99	.02
1.00031	1025.02	.02
1.50129	1036.33	.02
2.00063	1046	.02

System: octyl trimethyl ammonium bromide + water; phases: Liquid
Fixed: Pressure, kPa = 101
Property: Molar heat capacity at constant pressure, J/K/mol (Liquid); method: Large sample (1 g) DSC
Temperature, K	Molality, mol/kg of octyl trimethyl ammonium bromide	Molar heat capacity at constant pressure, J/K/mol	uncertainty
298.15	0	75.350710128	.37675355064
298.15	.00997	75.4616287749147	.377308143874574
298.15	.01501	75.5775791424086	.377887895712043
298.15	.025	75.6938749393248	.378469374696624
298.15	.04	75.8452126093665	.379226063046832
298.15	.05	75.9498426067852	.379749213033926
298.15	.07502	76.2732975472197	.381366487736098
298.15	.08	76.3219459393018	.381609729696509
298.15	.08509	76.4036495087124	.382018247543562
298.15	.09999	76.5370051763742	.382685025881871
298.15	.12017	76.7890849130725	.383945424565363
298.15	.12496	76.8465552785364	.384232776392682
298.15	.13973	76.9808473286185	.384904236643093
298.15	.14997	77.1046380611371	.385523190305685
298.15	.15998	77.2091762066972	.386045881033486
298.15	.17498	77.4109649854399	.3870548249272
298.15	.17987	77.4674466701203	.387337233350601
298.15	.18979	77.5863631611799	.3879318158059
298.15	.20004	77.6559998746785	.388279999373393
298.15	.21967	77.8998588836596	.389499294418298
298.15	.23998	78.1543447260428	.390771723630214
298.15	.24995	78.2436798240801	.391218399120401
298.15	.26005	78.3711272643781	.391855636321891
298.15	.27506	78.5172294650802	.392586147325401
298.15	.28011	78.6612128187886	.393306064093943
298.15	.29993	78.8134877364175	.394067438682087
298.15	.32507	79.0583125075093	.395291562537546
298.15	.34974	79.2752554735249	.396376277367625
298.15	.3749	79.5116810959346	.397558405479673
298.15	.39995	79.6827973959576	.398413986979788
298.15	.42481	79.909045377758	.39954522688879
298.15	.47423	80.2614225777277	.401307112888639
298.15	.54988	80.79805239316	.4039902619658
298.15	.62515	81.381290106391	.406906450531955
298.15	.70719	81.8472564227934	.409236282113967
298.15	1.27745	85.5813063904224	.427906531952112
298.15	2.09037	90.5824355839445	.452912177919723
303.15	0	75.32188568	.3766094284
303.15	.00997	75.441765699621	.377208828498105
303.15	.01501	75.5504612453356	.377752306226678
303.15	.025	75.6630697139593	.378315348569797
303.15	.04	75.8270286696375	.379135143348188
303.15	.05	75.9261487200561	.379630743600281
303.15	.07502	76.2421341637765	.381210670818883
303.15	.08	76.2944174042046	.381472087021023
303.15	.08509	76.3760888530928	.381880444265464
303.15	.09999	76.5075068846456	.382537534423228
303.15	.12017	76.7446339232531	.383723169616265
303.15	.12496	76.8205973628413	.384102986814207
303.15	.13973	76.9473612181324	.384736806090662
303.15	.14997	77.0785331318039	.38539266565902
303.15	.15998	77.1886189878786	.385943094939393
303.15	.17498	77.3828380451793	.386914190225896
303.15	.17987	77.4449205152293	.387224602576146
303.15	.18979	77.5543804217585	.387771902108792
303.15	.20004	77.6258297559889	.388129148779945
303.15	.21967	77.8695572343236	.389347786171618
303.15	.23998	78.1143953250924	.390571976625462
303.15	.24995	78.201736330997	.391008681654985
303.15	.26005	78.323358633073	.391616793165365
303.15	.27506	78.469304011283	.392346520056415
303.15	.28011	78.6266685172677	.393133342586338
303.15	.29993	78.7383189701433	.393691594850716
303.15	.32507	78.9885483333189	.394942741666594
303.15	.34974	79.2012247129825	.396006123564912
303.15	.3749	79.4333348157563	.397166674078781
303.15	.39995	79.6099414020947	.398049707010474
303.15	.42481	79.8536217148752	.399268108574376
303.15	.47423	80.2194239264237	.401097119632119
303.15	.54988	80.7432079500241	.403716039750121
303.15	.62515	81.3586039890274	.406793019945137
303.15	.70719	81.8430640724158	.409215320362079
303.15	1.27745	85.6767718661946	.428383859330973
303.15	2.09037	90.8025146821667	.454012573410834
308.15	0	75.316481096	.37658240548
308.15	.00997	75.4381542313858	.377190771156929
308.15	.01501	75.5396140865064	.377698070432532
308.15	.025	75.6540093535577	.378270046767788
308.15	.04	75.8215734877189	.379107867438594
308.15	.05	75.9188582933703	.379594291466851
308.15	.07502	76.2329684627638	.381164842313819
308.15	.08	76.2852412258388	.381426206129194
308.15	.08509	76.3613898367623	.381806949183812
308.15	.09999	76.4982886684804	.382491443342402
308.15	.12017	76.7372254249499	.383686127124749
308.15	.12496	76.8076184049938	.384038092024969
308.15	.13973	76.9324785023608	.384662392511804
308.15	.14997	77.0692099427564	.385346049713782
308.15	.15998	77.1699306071343	.385849653035672
308.15	.17498	77.3678370103736	.386839185051868
308.15	.17987	77.4299030786352	.387149515393176
308.15	.18979	77.5355670456282	.387677835228141
308.15	.20004	77.608859064226	.38804429532113
308.15	.21967	77.8468309973216	.389234154986608
308.15	.23998	78.0896647435517	.390448323717758
308.15	.24995	78.1769515396298	.390884757698149
308.15	.26005	78.2908759637856	.391454379818928
308.15	.27506	78.4367147027009	.392183573513504
308.15	.28011	78.5921242157468	.392960621078734
308.15	.29993	78.6901338635572	.393450669317786
308.15	.32507	78.9401009901311	.394700504950656
308.15	.34974	79.1544684431662	.395772342215831
308.15	.3749	79.3863270476493	.396931635238247
308.15	.39995	79.5705597837904	.397852798918952
308.15	.42481	79.8259098834338	.399129549417169
308.15	.47423	80.1994245686599	.400997122843299
308.15	.54988	80.7330515716656	.403665257858328
308.15	.62515	81.3689158605563	.406844579302782
308.15	.70719	81.8724105250593	.409362052625297
308.15	1.27745	85.8048353093036	.429024176546518
308.15	2.09037	91.0517608897919	.45525880444896
313.15	0	75.332694848	.37666347424
313.15	.00997	75.4544058384443	.377272029192221
313.15	.01501	75.5486533855307	.377743266927654
313.15	.025	75.6630697139593	.378315348569797
313.15	.04	75.8252102756646	.379126051378323
313.15	.05	75.9279713267276	.379639856633638
313.15	.07502	76.2458004441816	.381229002220908
313.15	.08	76.2980878755509	.381490439377755
313.15	.08509	76.3613898367623	.381806949183812
313.15	.09999	76.5075068846456	.382537534423228
313.15	.12017	76.7668594181628	.383834297090814
313.15	.12496	76.8113266786645	.384056633393323
313.15	.13973	76.9343388418322	.384671694209161
313.15	.14997	77.0766684939944	.385383342469972
313.15	.15998	77.1531110644646	.385765555322323
313.15	.17498	77.3659618810228	.386829809405114
313.15	.17987	77.4186400011898	.387093200005949
313.15	.18979	77.5280416951761	.387640208475881
313.15	.20004	77.6050877993898	.388025438996949
313.15	.21967	77.8316801726535	.389158400863268
313.15	.23998	78.0801529814206	.390400764907103
313.15	.24995	78.1674189275654	.390837094637827
313.15	.26005	78.275590001768	.39137795000884
313.15	.27506	78.4232955756377	.392116477878188
313.15	.28011	78.5594990420882	.392797495210441
313.15	.29993	78.6708598209228	.393354299104614
313.15	.32507	78.9149083716735	.394574541858368
313.15	.34974	79.133038486167	.395665192430835
313.15	.3749	79.3726164486181	.396863082243091
313.15	.39995	79.5607143792144	.397803571896072
313.15	.42481	79.8278892999654	.399139446499827
313.15	.47423	80.2014245044363	.401007122522181
313.15	.54988	80.7655519824128	.403827759912064
313.15	.62515	81.4122257209779	.407061128604889
313.15	.70719	81.9331996055352	.409665998027676
313.15	1.27745	85.9631682935112	.429815841467556
313.15	2.09037	91.3328257622203	.456664128811101
