Measured thermophysical data. Experimental measurements and equation of state modeling of liquid densities for long-chain n-alkanes at pressures to 265 MPa and temperatures to 523 K
Source: Fluid Phase Equilib., 2011, 10.1016/j.fluid.2011.08.020
Compound 1: hexadecane, C16H34, purity 99%
Compound 2: eicosane, C20H42, purity 99%
Compound 3: octadecane, C18H38, purity 99%

System: hexadecane; phases: Liquid
Property: Mass density, kg/m3 (Liquid); method: Variable volume cell
Temperature, K	Pressure, kPa	Mass density, kg/m3	uncertainty
323.65	14900	758	3.79
422.85	14100	700	3.5
522.55	15100	643	3.215
323.65	27900	769	3.845
422.85	27900	713	3.565
522.55	27100	660	3.3
323.65	41500	779	3.895
422.85	41200	724	3.62
522.55	42000	675	3.375
323.65	55500	787	3.935
422.85	55500	734	3.67
522.55	55400	687	3.435
323.65	69400	792	3.96
422.85	69800	743	3.715
522.55	69100	698	3.49
323.65	81300	799	3.995
422.85	82800	750	3.75
522.55	82100	707	3.535
323.65	109700	807	4.035
422.85	108800	765	3.825
522.55	107900	723	3.615
422.85	136900	778	3.89
522.55	135800	738	3.69
422.85	170700	792	3.96
522.55	170100	755	3.775
422.85	204300	804	4.02
522.55	203300	769	3.845
422.85	236500	815	4.075
522.55	235800	782	3.91
422.85	262300	823	4.115
522.55	255000	788	3.94

System: eicosane; phases: Liquid
Property: Mass density, kg/m3 (Liquid); method: Variable volume cell
Temperature, K	Pressure, kPa	Mass density, kg/m3	uncertainty
323.65	7300	771	3.855
422.85	7400	711	3.555
522.55	16400	661	3.305
323.65	14900	777	3.885
422.85	14300	719	3.595
522.55	28300	676	3.38
323.65	21400	784	3.92
422.85	20600	723	3.615
522.55	41900	691	3.455
323.65	27400	787	3.935
422.85	27900	730	3.65
522.55	55500	706	3.53
323.65	34200	789	3.945
422.85	34600	735	3.675
522.55	69600	719	3.595
422.85	54200	748	3.74
522.55	82500	727	3.635
422.85	81600	765	3.825
522.55	109200	744	3.72
422.85	109200	781	3.905
522.55	138200	763	3.815
422.85	136100	792	3.96
522.55	173100	777	3.885
422.85	169500	806	4.03
522.55	204700	791	3.955
422.85	203100	818	4.09
522.55	239800	805	4.025
422.85	235500	829	4.145
522.55	258000	810	4.05
422.85	260000	837	4.185

System: octadecane; phases: Liquid
Property: Mass density, kg/m3 (Liquid); method: Variable volume cell
Temperature, K	Pressure, kPa	Mass density, kg/m3	uncertainty
323.65	7000	764	3.82
422.85	7700	702	3.51
522.55	15300	651	3.255
323.65	14400	769	3.845
422.85	15100	711	3.555
522.55	29400	668	3.34
323.65	28300	778	3.89
422.85	29400	724	3.62
522.55	43200	681	3.405
323.65	42200	788	3.94
422.85	42500	732	3.66
522.55	56400	692	3.46
323.65	55600	797	3.985
422.85	56100	741	3.705
522.55	70800	703	3.515
323.65	68900	800	4
422.85	73200	752	3.76
522.55	84400	712	3.56
422.85	84500	761	3.805
522.55	110000	727	3.635
422.85	110000	774	3.87
522.55	137800	742	3.71
422.85	138500	787	3.935
522.55	170400	757	3.785
422.85	171700	801	4.005
522.55	205300	771	3.855
422.85	206100	813	4.065
522.55	235700	782	3.91
422.85	235500	823	4.115
522.55	257000	790	3.95
422.85	255900	829	4.145
