Measured thermophysical data. Phase behavior of the poly(vinyl pyrrolidone) + dichloromethane + supercritical  carbon dioxide system
Source: Fluid Phase Equilib., 2008, 10.1016/j.fluid.2008.07.016
Compound 1: carbon dioxide, CO2
Compound 2: dichloromethane, CH2Cl2

System: dichloromethane + carbon dioxide; phases: Liquid, Gas
Property: Vapor or sublimation pressure, kPa (Liquid); method: Closed cell (Static) method
Mole fraction of carbon dioxide	Temperature, K	Vapor or sublimation pressure, kPa	uncertainty
.158	308.2	1730	30
.297	308.2	2880	30
.411	308.2	3680	30
.536	308.2	4420	30
.654	308.2	5150	30
.706	308.2	5390	30
.785	308.2	5910	30
.851	308.2	6330	30
.158	318.2	2030	30
.297	318.2	3390	30
.411	318.2	4310	30
.536	318.2	5250	30
.654	318.2	6140	30
.706	318.2	6520	30
.785	318.2	6930	30
.851	318.2	7580	30
.158	328.2	2410	30
.297	328.2	3990	30
.411	328.2	5040	30
.536	328.2	6180	30
.654	328.2	7120	30
.706	328.2	7610	30
.785	328.2	8200	30
.851	328.2	8920	30
