Measured thermophysical data. Measurement and modeling for solubility of 3-hydroxybenzaldehyde and its mixture with 4-hydroxybenzaldehyde in supercritical carbon dioxide
Source: Fluid Phase Equilib., 2016, 10.1016/j.fluid.2015.10.012
Compound 1: 3-hydroxybenzaldehyde, C7H6O2, purity 97%
Compound 2: 4-hydroxybenzaldehyde, C7H6O2, purity 98%
Compound 3: carbon dioxide, CO2, purity 99.9%
Compound 4: nitrogen, N2, purity 99.99%
Compound 5: ethanol, C2H6O, purity 97.0%

System: 3-hydroxybenzaldehyde; phases: Crystal, Liquid, Air at 1 atmosphere
Property: Normal melting temperature, K (Crystal); method: Visual observation
Normal melting temperature, K	uncertainty
376	1

System: 4-hydroxybenzaldehyde; phases: Crystal, Liquid, Air at 1 atmosphere
Property: Normal melting temperature, K (Crystal); method: Visual observation
Normal melting temperature, K	uncertainty
387	1

System: 3-hydroxybenzaldehyde + carbon dioxide; phases: Fluid (supercritical or subcritical phases), Crystal
Property: Mole fraction of 3-hydroxybenzaldehyde (Fluid (supercritical or subcritical phases)); method: Chromatography
Temperature, K	Pressure, kPa	Mole fraction of 3-hydroxybenzaldehyde	uncertainty
308	11000	.0000823	.000004115
308	13000	.0001148	.00000574
308	15000	.000161	.00000805
308	18000	.0002104	.00001052
308	21000	.0002469	.000012345
318	11000	.0000637	.000003185
318	13000	.0001395	.000006975
318	15000	.0002063	.000010315
318	18000	.0003112	.00001556
318	21000	.0003701	.000018505
328	11000	.0000251	.000001255
328	13000	.0001292	.00000646
328	15000	.0002787	.000013935
328	18000	.0004392	.00002196
328	21000	.0006011	.000030055

System: 3-hydroxybenzaldehyde + 4-hydroxybenzaldehyde + carbon dioxide; phases: Fluid (supercritical or subcritical phases), Crystal, Crystal
Property: Mole fraction of 3-hydroxybenzaldehyde (Fluid (supercritical or subcritical phases)); method: Chromatography
Temperature, K	Pressure, kPa	Mole fraction of 3-hydroxybenzaldehyde	uncertainty
308	11000	.0000944	.00000472
308	13000	.0001242	.00000621
308	15000	.000185	.00000925
308	18000	.0002319	.000011595
308	21000	.0002685	.000013425
318	11000	.0000647	.000003235
318	13000	.0001698	.00000849
318	15000	.0002162	.00001081
318	18000	.0003445	.000017225
318	21000	.0004356	.00002178
328	11000	.0000272	.00000136
328	13000	.0001698	.00000849
328	15000	.0003215	.000016075
328	18000	.0005789	.000028945
328	21000	.0007104	.00003552

System: 3-hydroxybenzaldehyde + 4-hydroxybenzaldehyde + carbon dioxide; phases: Fluid (supercritical or subcritical phases), Crystal, Crystal
Property: Mole fraction of 4-hydroxybenzaldehyde (Fluid (supercritical or subcritical phases)); method: Chromatography
Temperature, K	Pressure, kPa	Mole fraction of 4-hydroxybenzaldehyde	uncertainty
308	11000	.0000206	.00000103
308	13000	.0000268	.00000134
308	15000	.000034	.0000017
308	18000	.000047	.00000235
308	21000	.0000587	.000002935
318	11000	.0000179	.000000895
318	13000	.0000344	.00000172
318	15000	.0000534	.00000267
318	18000	.0000815	.000004075
318	21000	.000108	.0000054
328	11000	.0000086	.00000043
328	13000	.0000453	.000002265
328	15000	.0000846	.00000423
328	18000	.0001329	.000006645
328	21000	.0001783	.000008915
