Measured thermophysical data. Vapor liquid liquid equilibrium and vapor liquid equilibrium for the  quaternary system water ethanol cyclohexane toluene and the ternary system  water cyclohexane toluene. Isobaric experimental determination at 101.3 kPa
Source: Fluid Phase Equilib., 2011, 10.1016/j.fluid.2011.06.033
Compound 1: ethanol, C2H6O, purity 99%
Compound 2: cyclohexane, C6H12, purity 99%
Compound 3: toluene, C7H8, purity 99%
Compound 4: water, H2O, purity 99.8%

System: toluene + cyclohexane + water; phases: Liquid mixture 1, Liquid mixture 2, Gas
Property: Mole fraction of toluene (Liquid mixture 1); method: Chromatography
Property: Mole fraction of water (Liquid mixture 1); method: Chromatography
Property: Mole fraction of cyclohexane (Liquid mixture 2); method: Chromatography
Property: Mole fraction of water (Liquid mixture 2); method: Chromatography
Property: Mole fraction of cyclohexane (Gas); method: Chromatography
Property: Mole fraction of water (Gas); method: Chromatography
Temperature, K	Pressure, kPa	Mole fraction of toluene	uncertainty	Mole fraction of water	uncertainty	Mole fraction of cyclohexane	uncertainty	Mole fraction of water	uncertainty	Mole fraction of cyclohexane	uncertainty	Mole fraction of water	uncertainty
344.75	101.3	.00003		.999		.711		.002		.622		.309	
347.7	101.3	.0002		.999		.546		.004		.49		.367	
350.4	101.3	.0005		.999		.282		.007		.374		.406	
353.75	101.3	.00004		.999		.09		.008		.209		.468	
