Measured thermophysical data. Determination and correlation of infinite dilution binary diffusion coefficients for aluminum acetylacetonate in supercritical and liquid fluids
Source: Fluid Phase Equilib., 2016, 10.1016/j.fluid.2016.01.042
Compound 1: aluminum triacetylacetonate, C15H21AlO6, purity 99%
Compound 2: hexane, C6H14, purity 98%
Compound 3: carbon dioxide, CO2, purity 99.95%
Compound 4: ethanol, C2H6O, purity 99.5%

System: carbon dioxide + aluminum triacetylacetonate; phases: Liquid
Fixed: Mole fraction of aluminum triacetylacetonate = 0
Property: Binary diffusion coefficient, m2/s (Liquid); method: Chromatographic impulse response
Pressure, kPa	Temperature, K	Binary diffusion coefficient, m2/s	uncertainty
7800	308.15	0.00000001163	
7950	308.15	0.00000001096	
8000	308.15	0.00000001072	
8050	308.15	0.00000001028	
8100	308.15	0.00000001004	
8200	308.15	0.00000001004	
8300	308.15	0.00000001045	
8400	308.15	0.00000001045	
8500	308.15	0.00000000992	
8800	308.15	0.00000000964	
9000	308.15	0.00000000926	
9500	308.15	0.00000000882	
10000	308.15	0.0000000084	
10500	308.15	0.00000000802	
11000	308.15	0.00000000788	
12000	308.15	0.00000000754	
13000	308.15	0.00000000718	
14000	308.15	0.00000000709	
16000	308.15	0.00000000667	
18000	308.15	0.0000000062	
20000	308.15	0.00000000607	
22000	308.15	0.00000000593	
23000	308.15	0.00000000573	
24000	308.15	0.00000000571	
25000	308.15	0.00000000564	
30000	308.15	0.00000000518	
32000	308.15	0.00000000515	
35000	308.15	0.00000000505	
40000	308.15	0.0000000048	
8400	313.15	0.00000001447	
8500	313.15	0.00000001398	
8600	313.15	0.00000001321	
8700	313.15	0.00000001273	
8800	313.15	0.00000001216	
8900	313.15	0.00000001121	
9000	313.15	0.00000001145	
9100	313.15	0.00000001109	
9300	313.15	0.00000001114	
9500	313.15	0.00000001055	
10000	313.15	0.00000000984	
10500	313.15	0.00000000944	
11000	313.15	0.00000000925	
11500	313.15	0.00000000872	
12000	313.15	0.00000000846	
13000	313.15	0.00000000797	
15000	313.15	0.00000000746	
16000	313.15	0.00000000718	
17000	313.15	0.00000000701	
19000	313.15	0.00000000675	
20000	313.15	0.00000000657	
21000	313.15	0.00000000646	
25000	313.15	0.00000000598	
30000	313.15	0.00000000561	
32000	313.15	0.00000000543	
35000	313.15	0.00000000534	
40000	313.15	0.00000000499	
9800	323.15	0.00000001498	
10000	323.15	0.00000001457	
10100	323.15	0.00000001392	
10300	323.15	0.00000001344	
10500	323.15	0.0000000125	
10800	323.15	0.00000001256	
11000	323.15	0.00000001245	
11500	323.15	0.00000001176	
12000	323.15	0.00000001144	
13000	323.15	0.00000001063	
15000	323.15	0.00000000933	
18000	323.15	0.00000000838	
20000	323.15	0.0000000078	
22000	323.15	0.00000000751	
25000	323.15	0.0000000071	
30000	323.15	0.00000000657	
35000	323.15	0.00000000619	
12000	333.15	0.0000000146	
13000	333.15	0.00000001326	
14000	333.15	0.0000000122	
15000	333.15	0.00000001128	
16000	333.15	0.00000001092	
18000	333.15	0.00000000996	
20000	333.15	0.00000000904	
22000	333.15	0.00000000852	
25000	333.15	0.00000000792	
30000	333.15	0.00000000739	
35000	333.15	0.00000000699	

System: ethanol + aluminum triacetylacetonate; phases: Liquid
Fixed: Mole fraction of aluminum triacetylacetonate = 0
Property: Binary diffusion coefficient, m2/s (Liquid); method: Taylor dispersion method
Pressure, kPa	Temperature, K	Binary diffusion coefficient, m2/s	uncertainty
100	300.15	0.00000000073	
30000	300.15	0.00000000063	
100	313.15	0.00000000106	
30000	313.15	0.00000000089	
100	323.15	0.00000000126	
30000	333.15	0.00000000157	
