Measured thermophysical data. Density, transport properties and electrochemical potential windows for the 2-hydroxy-N,N,N-trimethylethanaminium chlorides based ionic liquids at several temperatures
Source: Fluid Phase Equilib., 2015, 10.1016/j.fluid.2015.03.025
Compound 1: ethylene glycol, C2H6O2, purity 97%
Compound 2: triethanolamine, C6H15NO3, purity 98%
Compound 3: oxalic acid, C2H2O4, purity 97%
Compound 4: choline chloride, C5H14ClNO, purity 98%

System: choline chloride + ethylene glycol; phases: Liquid
Fixed: Pressure, kPa = 101
Fixed: Mole fraction of choline chloride = .5
Property: Mass density, kg/m3 (Liquid); method: Buoyancy - hydrostatic balance
Temperature, K	Mass density, kg/m3	uncertainty
301.55	1048.21	.038
307.95	1046.1	.038
313.15	1044.28	.038
317.55	1042.81	.038
322.85	1041.05	.038
327.35	1039.36	.038
333.25	1036.72	.038
338.15	1034.68	.038
347.85	1030.78	.038
353.15	1028.98	.038

System: choline chloride + ethylene glycol; phases: Liquid
Fixed: Pressure, kPa = 101
Fixed: Mole fraction of choline chloride = .5
Property: Viscosity, Pa*s (Liquid); method: Capillary tube (Ostwald; Ubbelohde) method
Temperature, K	Viscosity, Pa*s	uncertainty
313.15	.0253	.0000000759
318.15	.0217	.0000000651
323.15	.0183	.0000000549
328.15	.0163	.0000000489
333.15	.0144	.0000000432
338.15	.0124	.0000000372
343.15	.0105	.0000000315
348.15	.0096	.0000000288
353.15	.0087	.0000000261

System: choline chloride + ethylene glycol; phases: Liquid
Fixed: Pressure, kPa = 101
Fixed: Mole fraction of choline chloride = .5
Property: Electrical conductivity, S/m (Liquid); method: Alternating current cell with electrodes
Temperature, K	Electrical conductivity, S/m	uncertainty
303.04	.838	.004
308.15	.917	.004
312.74	.986	.004
317.51	1.054	.004
323.15	1.123	.004
328.15	1.186	.004
333.15	1.264	.004
343.15	1.414	.004
353.15	1.519	.004

System: choline chloride + triethanolamine; phases: Liquid
Fixed: Pressure, kPa = 101
Fixed: Mole fraction of choline chloride = .5
Property: Mass density, kg/m3 (Liquid); method: Buoyancy - hydrostatic balance
Temperature, K	Mass density, kg/m3	uncertainty
313.15	1044.2	.038
318.25	1042.56	.038
323.25	1040.96	.038
328.35	1039.12	.038
333.25	1037.41	.038
338.45	1035.68	.038
343.25	1034.09	.038
348.55	1032.59	.038
350.45	1032.09	.038
353.15	1031.28	.038

System: choline chloride + triethanolamine; phases: Liquid
Fixed: Pressure, kPa = 101
Fixed: Mole fraction of choline chloride = .5
Property: Viscosity, Pa*s (Liquid); method: Capillary tube (Ostwald; Ubbelohde) method
Temperature, K	Viscosity, Pa*s	uncertainty
313.15	.083	.0003
318.15	.0648	.0003
323.15	.0449	.0003
328.15	.0399	.0003
333.15	.033	.0003
338.15	.0272	.0003
343.15	.0213	.0003
348.15	.0188	.0003

System: choline chloride + triethanolamine; phases: Liquid
Fixed: Pressure, kPa = 101
Fixed: Mole fraction of choline chloride = .5
Property: Electrical conductivity, S/m (Liquid); method: Alternating current cell with electrodes
Temperature, K	Electrical conductivity, S/m	uncertainty
312.75	.013	.004
317.55	.008	.004
323.15	.008	.004
328.15	.013	.004
333.15	.007	.004
338.15	.017	.004
343.15	.018	.004
348.15	.006	.004
353.15	.008	.004

System: choline chloride + oxalic acid; phases: Liquid
Fixed: Pressure, kPa = 101
Fixed: Mole fraction of choline chloride = .5
Property: Mass density, kg/m3 (Liquid); method: Buoyancy - hydrostatic balance
Temperature, K	Mass density, kg/m3	uncertainty
300.15	1160.6	.038
304.15	1158.66	.038
312.75	1153.06	.038
318.15	1150.57	.038
323.15	1148.23	.038
328.65	1146.23	.038
334.15	1142.66	.038
343.15	1137.16	.038
348.65	1135.11	.038
353.15	1133.19	.038

System: choline chloride + oxalic acid; phases: Liquid
Fixed: Pressure, kPa = 101
Fixed: Mole fraction of choline chloride = .5
Property: Viscosity, Pa*s (Liquid); method: Capillary tube (Ostwald; Ubbelohde) method
Temperature, K	Viscosity, Pa*s	uncertainty
303.15	.1194	.0003
308.15	.1011	.0003
313.15	.0827	.0003
318.15	.0602	.0003
323.15	.0437	.0003
328.15	.037	.0003
333.15	.0319	.0003
343.15	.0201	.0003
348.15	.0168	.0003
353.15	.0143	.0003

System: choline chloride + oxalic acid; phases: Liquid
Fixed: Pressure, kPa = 101
Fixed: Mole fraction of choline chloride = .5
Property: Electrical conductivity, S/m (Liquid); method: Alternating current cell with electrodes
Temperature, K	Electrical conductivity, S/m	uncertainty
303.05	.483	.004
308.15	.56	.004
312.75	.638	.004
317.55	.727	.004
323.15	.808	.004
328.15	.886	.004
333.15	.981	.004
343.15	1.144	.004
353.15	1.288	.004
