Measured thermophysical data. Experimental data, correlation and prediction of the extraction of benzene from cyclic hydrocarbons using [Epy][ESO4] ionic liquid
Source: Fluid Phase Equilib., 2014, 10.1016/j.fluid.2013.10.033
Compound 1: 1-ethylpyridinium ethylsulfate, C9H15NO4S
Compound 2: cyclohexane, C6H12, purity 99.9%
Compound 3: methylcyclohexane, C7H14, purity 99%
Compound 4: cyclooctane, C8H16, purity 99.9%
Compound 5: cyclohexene, C6H10, purity 99%
Compound 6: benzene, C6H6, purity 99.9%

System: 1-ethylpyridinium ethylsulfate; phases: Liquid
Fixed: Pressure, kPa = 101.325
Property: Refractive index (Na D-line) (Liquid); method: Standard Abbe refractometry
Temperature, K	Refractive index (Na D-line)	uncertainty
298.15	1.50525	.00004

System: 1-ethylpyridinium ethylsulfate; phases: Liquid
Fixed: Pressure, kPa = 101.325
Property: Mass density, kg/m3 (Liquid); method: Vibrating tube method
Temperature, K	Mass density, kg/m3	uncertainty
298.15	1252	.03

System: cyclohexane; phases: Liquid
Fixed: Pressure, kPa = 101.325
Property: Refractive index (Na D-line) (Liquid); method: Standard Abbe refractometry
Temperature, K	Refractive index (Na D-line)	uncertainty
298.15	1.4236	.00004

System: cyclohexane; phases: Liquid
Fixed: Pressure, kPa = 101.325
Property: Mass density, kg/m3 (Liquid); method: Vibrating tube method
Temperature, K	Mass density, kg/m3	uncertainty
298.15	773.8	.03

System: methylcyclohexane; phases: Liquid
Fixed: Pressure, kPa = 101.325
Property: Refractive index (Na D-line) (Liquid); method: Standard Abbe refractometry
Temperature, K	Refractive index (Na D-line)	uncertainty
298.15	1.42062	.00004

System: methylcyclohexane; phases: Liquid
Fixed: Pressure, kPa = 101.325
Property: Mass density, kg/m3 (Liquid); method: Vibrating tube method
Temperature, K	Mass density, kg/m3	uncertainty
298.15	765.02	.03

System: cyclooctane; phases: Liquid
Fixed: Pressure, kPa = 101.325
Property: Refractive index (Na D-line) (Liquid); method: Standard Abbe refractometry
Temperature, K	Refractive index (Na D-line)	uncertainty
298.15	1.45598	.00004

System: cyclooctane; phases: Liquid
Fixed: Pressure, kPa = 101.325
Property: Mass density, kg/m3 (Liquid); method: Vibrating tube method
Temperature, K	Mass density, kg/m3	uncertainty
298.15	831.47	.03

System: cyclohexene; phases: Liquid
Fixed: Pressure, kPa = 101.325
Property: Refractive index (Na D-line) (Liquid); method: Standard Abbe refractometry
Temperature, K	Refractive index (Na D-line)	uncertainty
298.15	1.44378	.00004

System: cyclohexene; phases: Liquid
Fixed: Pressure, kPa = 101.325
Property: Mass density, kg/m3 (Liquid); method: Vibrating tube method
Temperature, K	Mass density, kg/m3	uncertainty
298.15	805.69	.03

System: benzene; phases: Liquid
Fixed: Pressure, kPa = 101.325
Property: Refractive index (Na D-line) (Liquid); method: Standard Abbe refractometry
Temperature, K	Refractive index (Na D-line)	uncertainty
298.15	1.49774	.00004

System: benzene; phases: Liquid
Fixed: Pressure, kPa = 101.325
Property: Mass density, kg/m3 (Liquid); method: Vibrating tube method
Temperature, K	Mass density, kg/m3	uncertainty
298.15	873.57	.03

System: benzene + cyclohexane + 1-ethylpyridinium ethylsulfate; phases: Liquid mixture 1, Liquid mixture 2
Fixed: Pressure, kPa = 101
Fixed: Temperature, K = 298.15
Property: Mole fraction of benzene (Liquid mixture 1); method: Titration method
Mole fraction of cyclohexane	Mole fraction of benzene	uncertainty
.017	0	.007
.015	.051	.007
.015	.099	.007
.012	.148	.007
.009	.211	.007
.005	.262	.007
.003	.313	.007
.003	.359	.007
0	.406	.007

System: benzene + cyclohexane + 1-ethylpyridinium ethylsulfate; phases: Liquid
Fixed: Pressure, kPa = 101
Fixed: Temperature, K = 298.15
Property: Mass density, kg/m3 (Liquid); method: Vibrating tube method
Mole fraction of cyclohexane	Mole fraction of benzene	Mass density, kg/m3	uncertainty
.017	0	1247.74	.03
.015	.051	1240.01	.03
.015	.099	1231.95	.03
.012	.148	1223.98	.03
.009	.211	1212.54	.03
.005	.262	1203.28	.03
.003	.313	1192.57	.03
.003	.359	1181.67	.03
0	.406	1171.69	.03
.015	.078	1235.78	.03
.011	.194	1215.47	.03
.004	.289	1196.68	.03

System: benzene + cyclohexane + 1-ethylpyridinium ethylsulfate; phases: Liquid mixture 1, Liquid mixture 2
Property: Mole fraction of cyclohexane (Liquid mixture 1); method: Density calibration data
Property: Mole fraction of benzene (Liquid mixture 2); method: Density calibration data
Property: Mole fraction of cyclohexane (Liquid mixture 2); method: Density calibration data
Temperature, K	Pressure, kPa	Mole fraction of benzene	Mole fraction of cyclohexane	uncertainty	Mole fraction of benzene	uncertainty	Mole fraction of cyclohexane	uncertainty
298.15	101.325	.116	.884	.007	.052	.007	.016	.007
298.15	101.325	.175	.825	.007	.076	.007	.015	.007
298.15	101.325	.238	.762	.007	.101	.007	.014	.007
298.15	101.325	.294	.706	.007	.122	.007	.013	.007
298.15	101.325	.354	.646	.007	.144	.007	.012	.007
298.15	101.325	.483	.517	.007	.192	.007	.01	.007
298.15	101.325	.609	.391	.007	.235	.007	.007	.007
298.15	101.325	.739	.261	.007	.278	.007	.005	.007
298.15	101.325	.863	.137	.007	.328	.007	.003	.007

System: benzene + cyclooctane + 1-ethylpyridinium ethylsulfate; phases: Liquid mixture 1, Liquid mixture 2
Fixed: Pressure, kPa = 101
Fixed: Temperature, K = 298.15
Property: Mole fraction of benzene (Liquid mixture 1); method: Titration method
Mole fraction of cyclooctane	Mole fraction of benzene	uncertainty
.009	0	.007
.009	.05	.007
.007	.101	.007
.006	.151	.007
.004	.207	.007
.004	.26	.007
.001	.306	.007
.001	.351	.007
0	.406	.007

System: benzene + cyclooctane + 1-ethylpyridinium ethylsulfate; phases: Liquid
Fixed: Pressure, kPa = 101
Fixed: Temperature, K = 298.15
Property: Mass density, kg/m3 (Liquid); method: Vibrating tube method
Mole fraction of cyclooctane	Mole fraction of benzene	Mass density, kg/m3	uncertainty
.009	0	1249.15	.03
.009	.05	1241.37	.03
.007	.101	1233.75	.03
.006	.151	1225.19	.03
.004	.207	1215.23	.03
.004	.26	1203.99	.03
.001	.306	1195.35	.03
.001	.351	1184.73	.03
0	.406	1171.69	.03
.008	.078	1237.47	.03
.005	.181	1219.54	.03
.004	.283	1199.3	.03

System: benzene + cyclooctane + 1-ethylpyridinium ethylsulfate; phases: Liquid mixture 1, Liquid mixture 2
Property: Mole fraction of cyclooctane (Liquid mixture 1); method: Density calibration data
Property: Mole fraction of benzene (Liquid mixture 2); method: Density calibration data
Property: Mole fraction of cyclooctane (Liquid mixture 2); method: Density calibration data
Temperature, K	Pressure, kPa	Mole fraction of benzene	Mole fraction of cyclooctane	uncertainty	Mole fraction of benzene	uncertainty	Mole fraction of cyclooctane	uncertainty
298.15	101.325	.111	.889	.007	.042	.007	.008	.007
298.15	101.325	.168	.832	.007	.063	.007	.008	.007
298.15	101.325	.227	.773	.007	.085	.007	.007	.007
298.15	101.325	.291	.709	.007	.108	.007	.007	.007
298.15	101.325	.346	.654	.007	.128	.007	.007	.007
298.15	101.325	.469	.531	.007	.174	.007	.006	.007
298.15	101.325	.601	.399	.007	.221	.007	.005	.007
298.15	101.325	.73	.27	.007	.265	.007	.004	.007
298.15	101.325	.863	.137	.007	.316	.007	.003	.007

System: benzene + methylcyclohexane + 1-ethylpyridinium ethylsulfate; phases: Liquid mixture 1, Liquid mixture 2
Fixed: Pressure, kPa = 101
Fixed: Temperature, K = 298.15
Property: Mole fraction of benzene (Liquid mixture 1); method: Titration method
Mole fraction of methylcyclohexane	Mole fraction of benzene	uncertainty
.013	0	.007
.009	.05	.007
.008	.1	.007
.007	.151	.007
.005	.207	.007
.004	.258	.007
.003	.309	.007
.002	.359	.007
0	.406	.007

System: benzene + methylcyclohexane + 1-ethylpyridinium ethylsulfate; phases: Liquid
Fixed: Pressure, kPa = 101
Fixed: Temperature, K = 298.15
Property: Mass density, kg/m3 (Liquid); method: Vibrating tube method
Mole fraction of methylcyclohexane	Mole fraction of benzene	Mass density, kg/m3	uncertainty
.013	0	1248.79	.03
.009	.05	1241.67	.03
.008	.1	1233.55	.03
.007	.151	1224.41	.03
.005	.207	1214.46	.03
.004	.258	1204.17	.03
.003	.309	1193.52	.03
.002	.359	1182.27	.03
0	.406	1171.69	.03
.008	.082	1236.54	.03
.005	.188	1218.18	.03
.003	.292	1197.48	.03

System: benzene + methylcyclohexane + 1-ethylpyridinium ethylsulfate; phases: Liquid mixture 1, Liquid mixture 2
Property: Mole fraction of methylcyclohexane (Liquid mixture 1); method: Density calibration data
Property: Mole fraction of benzene (Liquid mixture 2); method: Density calibration data
Property: Mole fraction of methylcyclohexane (Liquid mixture 2); method: Density calibration data
Temperature, K	Pressure, kPa	Mole fraction of benzene	Mole fraction of methylcyclohexane	uncertainty	Mole fraction of benzene	uncertainty	Mole fraction of methylcyclohexane	uncertainty
298.15	101.325	.117	.883	.007	.046	.007	.009	.007
298.15	101.325	.173	.827	.007	.067	.007	.009	.007
298.15	101.325	.232	.768	.007	.089	.007	.008	.007
298.15	101.325	.291	.709	.007	.112	.007	.008	.007
298.15	101.325	.36	.64	.007	.137	.007	.007	.007
298.15	101.325	.485	.515	.007	.185	.007	.006	.007
298.15	101.325	.611	.389	.007	.233	.007	.005	.007
298.15	101.325	.722	.278	.007	.27	.007	.004	.007
298.15	101.325	.871	.129	.007	.325	.007	.003	.007

System: benzene + cyclohexene + 1-ethylpyridinium ethylsulfate; phases: Liquid mixture 1, Liquid mixture 2
Fixed: Pressure, kPa = 101
Fixed: Temperature, K = 298.15
Property: Mole fraction of benzene (Liquid mixture 1); method: Titration method
Mole fraction of cyclohexene	Mole fraction of benzene	uncertainty
.041	0	.007
.04	.05	.007
.038	.094	.007
.036	.142	.007
.026	.194	.007
.024	.244	.007
.013	.294	.007
.008	.345	.007
0	.406	.007

System: benzene + cyclohexene + 1-ethylpyridinium ethylsulfate; phases: Liquid
Fixed: Pressure, kPa = 101
Fixed: Temperature, K = 298.15
Property: Mass density, kg/m3 (Liquid); method: Vibrating tube method
Mole fraction of cyclohexene	Mole fraction of benzene	Mass density, kg/m3	uncertainty
.041	0	1243.4	.03
.04	.05	1235.55	.03
.038	.094	1229.05	.03
.036	.142	1221.59	.03
.026	.194	1212.8	.03
.024	.244	1204.29	.03
.013	.294	1194.69	.03
.008	.345	1184.81	.03
0	.406	1171.69	.03
.04	.078	1230.72	.03
.025	.178	1213.11	.03
.014	.292	1196.1	.03

System: benzene + cyclohexene + 1-ethylpyridinium ethylsulfate; phases: Liquid mixture 1, Liquid mixture 2
Property: Mole fraction of cyclohexene (Liquid mixture 1); method: Density calibration data
Property: Mole fraction of benzene (Liquid mixture 2); method: Density calibration data
Property: Mole fraction of cyclohexene (Liquid mixture 2); method: Density calibration data
Temperature, K	Pressure, kPa	Mole fraction of benzene	Mole fraction of cyclohexene	uncertainty	Mole fraction of benzene	uncertainty	Mole fraction of cyclohexene	uncertainty
298.15	101.325	.121	.879	.007	.043	.007	.04	.007
298.15	101.325	.179	.821	.007	.064	.007	.04	.007
298.15	101.325	.237	.763	.007	.084	.007	.039	.007
298.15	101.325	.297	.703	.007	.105	.007	.038	.007
298.15	101.325	.362	.638	.007	.128	.007	.036	.007
298.15	101.325	.488	.512	.007	.172	.007	.031	.007
298.15	101.325	.611	.389	.007	.214	.007	.025	.007
298.15	101.325	.728	.272	.007	.255	.007	.019	.007
298.15	101.325	.858	.142	.007	.3	.007	.011	.007

System: cyclohexane + 1-ethylpyridinium ethylsulfate; phases: Liquid mixture 1, Liquid mixture 2
Property: Mole fraction of cyclohexane (Liquid mixture 1); method: Titration method
Temperature, K	Pressure, kPa	Mole fraction of cyclohexane	uncertainty
298.15	101	.017	.007

System: cyclohexane + 1-ethylpyridinium ethylsulfate; phases: Liquid
Property: Mass density, kg/m3 (Liquid); method: Vibrating tube method
Mole fraction of cyclohexane	Pressure, kPa	Temperature, K	Mass density, kg/m3	uncertainty
.017	101	298.15	1247.74	.03

System: benzene + 1-ethylpyridinium ethylsulfate; phases: Liquid
Property: Mass density, kg/m3 (Liquid); method: Vibrating tube method
Mole fraction of benzene	Pressure, kPa	Temperature, K	Mass density, kg/m3	uncertainty
.406	101	298.15	1171.69	.03

System: cyclooctane + 1-ethylpyridinium ethylsulfate; phases: Liquid mixture 1, Liquid mixture 2
Property: Mole fraction of cyclooctane (Liquid mixture 1); method: Titration method
Temperature, K	Pressure, kPa	Mole fraction of cyclooctane	uncertainty
298.15	101	.009	.007

System: cyclooctane + 1-ethylpyridinium ethylsulfate; phases: Liquid
Property: Mass density, kg/m3 (Liquid); method: Vibrating tube method
Mole fraction of cyclooctane	Pressure, kPa	Temperature, K	Mass density, kg/m3	uncertainty
.009	101	298.15	1249.15	.03

System: methylcyclohexane + 1-ethylpyridinium ethylsulfate; phases: Liquid mixture 1, Liquid mixture 2
Property: Mole fraction of methylcyclohexane (Liquid mixture 1); method: Titration method
Temperature, K	Pressure, kPa	Mole fraction of methylcyclohexane	uncertainty
298.15	101	.013	.007

System: methylcyclohexane + 1-ethylpyridinium ethylsulfate; phases: Liquid
Property: Mass density, kg/m3 (Liquid); method: Vibrating tube method
Mole fraction of methylcyclohexane	Pressure, kPa	Temperature, K	Mass density, kg/m3	uncertainty
.013	101	298.15	1248.79	.03

System: cyclohexene + 1-ethylpyridinium ethylsulfate; phases: Liquid mixture 1, Liquid mixture 2
Property: Mole fraction of cyclohexene (Liquid mixture 1); method: Titration method
Temperature, K	Pressure, kPa	Mole fraction of cyclohexene	uncertainty
298.15	101	.041	.007

System: cyclohexene + 1-ethylpyridinium ethylsulfate; phases: Liquid
Property: Mass density, kg/m3 (Liquid); method: Vibrating tube method
Mole fraction of cyclohexene	Pressure, kPa	Temperature, K	Mass density, kg/m3	uncertainty
.041	101	298.15	1243.4	.03
