Measured thermophysical data. Liquid-liquid equilibrium in the ternary systems triethylene glycol + salts + water at different  temperatures; experiment and correlation
Source: Fluid Phase Equilib., 2010, 10.1016/j.fluid.2009.10.020
Compound 1: 3,6-dioxa-1,8-octanediol, C6H14O4
Compound 2: potassium fluoride, FK
Compound 3: potassium carbonate, CK2O3
Compound 4: water, H2O

System: 3,6-dioxa-1,8-octanediol + potassium carbonate + water; phases: Liquid mixture 2, Liquid mixture 1
Fixed: Pressure, kPa = 101.3
Property: Mole fraction of potassium carbonate (Liquid mixture 2); method: spectrophotometric analysis
Property: Mole fraction of potassium carbonate (Liquid mixture 1); method: spectrophotometric analysis
Property: Mole fraction of 3,6-dioxa-1,8-octanediol (Liquid mixture 1); method: spectrophotometric analysis
Temperature, K	Mole fraction of 3,6-dioxa-1,8-octanediol	Mole fraction of potassium carbonate	uncertainty	Mole fraction of potassium carbonate	uncertainty	Mole fraction of 3,6-dioxa-1,8-octanediol	uncertainty
298.15	.543	.112	.000336	.405	.001215	.043	.000172
308.15	.568	.105	.000315	.441	.001323	.03	.00012
308.15	.59	.103	.000309	.448	.001344	.028	.000112
308.15	.618	.102	.000306	.464	.001392	.025	.0001
308.15	.632	.1	.0003	.482	.001446	.02	.00008
308.15	.665	.096	.000288	.492	.001476	.017	.000068
318.15	.547	.105	.000315	.395	.001185	.033	.000132
318.15	.569	.104	.000312	.425	.001275	.025	.0001
318.15	.573	.102	.000306	.445	.001335	.023	.000092
318.15	.597	.099	.000297	.458	.001374	.021	.000084
318.15	.624	.096	.000288	.47	.00141	.017	.000068
298.15	.557	.109	.000327	.421	.001263	.037	.000148
318.15	.641	.094	.000282	.477	.001431	.015	.00006
318.15	.67	.092	.000276	.495	.001485	.012	.000048
298.15	.565	.106	.000318	.435	.001305	.036	.000144
298.15	.583	.105	.000315	.445	.001335	.034	.000136
298.15	.623	.104	.000312	.457	.001371	.029	.000116
298.15	.631	.101	.000303	.479	.001437	.022	.000088
298.15	.668	.098	.000294	.489	.001467	.021	.000084
308.15	.54	.11	.00033	.4	.0012	.036	.000144
308.15	.56	.108	.000324	.422	.001266	.033	.000132

System: 3,6-dioxa-1,8-octanediol + water + potassium fluoride; phases: Liquid mixture 2, Liquid mixture 1
Fixed: Pressure, kPa = 101.3
Property: Mole fraction of potassium fluoride (Liquid mixture 2); method: spectrophotometric analysis
Property: Mole fraction of potassium fluoride (Liquid mixture 1); method: spectrophotometric analysis
Property: Mole fraction of 3,6-dioxa-1,8-octanediol (Liquid mixture 1); method: spectrophotometric analysis
Temperature, K	Mole fraction of 3,6-dioxa-1,8-octanediol	Mole fraction of potassium fluoride	uncertainty	Mole fraction of potassium fluoride	uncertainty	Mole fraction of 3,6-dioxa-1,8-octanediol	uncertainty
298.15	.602	.126	.000378	.386	.001158	.022	.000088
308.15	.691	.101	.000303	.491	.001473	.005	.00002
318.15	.621	.118	.000354	.381	.001143	.031	.000124
318.15	.631	.117	.000351	.435	.001305	.029	.000116
318.15	.653	.113	.000339	.461	.001383	.022	.000088
318.15	.675	.102	.000306	.474	.001422	.015	.00006
318.15	.695	.1	.0003	.489	.001467	.012	.000048
298.15	.621	.123	.000369	.453	.001359	.016	.000064
298.15	.646	.114	.000342	.478	.001434	.012	.000048
298.15	.67	.104	.000312	.489	.001467	.01	.00004
298.15	.688	.098	.000294	.501	.001503	.008	.000032
308.15	.612	.122	.000366	.372	.001116	.024	.000096
308.15	.626	.118	.000354	.441	.001323	.02	.00008
308.15	.657	.113	.000339	.472	.001416	.017	.000068
308.15	.672	.105	.000315	.485	.001455	.007	.000028
