Measured thermophysical data. Understanding ion-ion and ion-solvent interactions in aqueous solutions of NMP based protic ionic liquids through partial molar properties and DFT calculations
Source: Fluid Phase Equilib., 2017, 10.1016/j.fluid.2017.05.005
Compound 1: water, H2O, purity 99.8%
Compound 2: N-methylpyrrolidone, C5H9NO, purity 99%
Compound 3: formic acid, CH2O2, purity 99%
Compound 4: propionic acid, C3H6O2, purity 99%
Compound 5: pentanoic acid, C5H10O2, purity 99%

System: formic acid + N-methylpyrrolidone + water; phases: Liquid
Fixed: Pressure, kPa = 101
Property: Mass density, kg/m3 (Liquid); method: Vibrating tube method
Temperature, K	Molality, mol/kg of N-methylpyrrolidone	Molality, mol/kg of formic acid	Mass density, kg/m3	uncertainty
288.15	0	0	999.13	
288.15	.09832	.09832	1000.74	
288.15	.20057	.20057	1002.414	
288.15	.30168	.30168	1004.017	
288.15	.41046	.41046	1005.723	
288.15	.4886	.4886	1006.922	
288.15	.57928	.57928	1008.279	
288.15	.68865	.68865	1009.898	
288.15	.78358	.78358	1011.276	
293.15	0	0	998.208	
293.15	.09832	.09832	999.764	
293.15	.20057	.20057	1001.37	
293.15	.30168	.30168	1002.919	
293.15	.41046	.41046	1004.548	
293.15	.4886	.4886	1005.692	
293.15	.57928	.57928	1006.996	
293.15	.68865	.68865	1008.532	
293.15	.78358	.78358	1009.839	
298.15	0	0	997.047	
298.15	.09832	.09832	998.529	
298.15	.20057	.20057	1000.061	
298.15	.30168	.30168	1001.541	
298.15	.41046	.41046	1003.095	
298.15	.4886	.4886	1004.21	
298.15	.57928	.57928	1005.462	
298.15	.68865	.68865	1006.928	
298.15	.78358	.78358	1008.178	
303.15	0	0	995.66	
303.15	.09832	.09832	997.088	
303.15	.20057	.20057	998.567	
303.15	.30168	.30168	999.992	
303.15	.41046	.41046	1001.498	
303.15	.4886	.4886	1002.566	
303.15	.57928	.57928	1003.773	
303.15	.68865	.68865	1005.205	
303.15	.78358	.78358	1006.413	
308.15	0	0	994.043	
308.15	.09832	.09832	995.417	
308.15	.20057	.20057	996.839	
308.15	.30168	.30168	998.21	
308.15	.41046	.41046	999.655	
308.15	.4886	.4886	1000.673	
308.15	.57928	.57928	1001.828	
308.15	.68865	.68865	1003.208	
308.15	.78358	.78358	1004.376	
313.15	0	0	992.228	
313.15	.09832	.09832	993.547	
313.15	.20057	.20057	994.913	
313.15	.30168	.30168	996.227	
313.15	.41046	.41046	997.614	
313.15	.4886	.4886	998.596	
313.15	.57928	.57928	999.711	
313.15	.68865	.68865	1001.025	
313.15	.78358	.78358	1002.146	
318.15	0	0	990.225	
318.15	.09832	.09832	991.475	
318.15	.20057	.20057	992.78	
318.15	.30168	.30168	994.029	
318.15	.41046	.41046	995.342	
318.15	.4886	.4886	996.276	
318.15	.57928	.57928	997.345	
318.15	.68865	.68865	998.615	
318.15	.78358	.78358	999.678	
323.15	0	0	988.03	
323.15	.09832	.09832	989.136	
323.15	.20057	.20057	990.303	
323.15	.30168	.30168	991.413	
323.15	.41046	.41046	992.588	
323.15	.4886	.4886	993.439	
323.15	.57928	.57928	994.392	
323.15	.68865	.68865	995.554	
323.15	.78358	.78358	996.536	
328.15	0	0	985.69	
328.15	.09832	.09832	986.778	
328.15	.20057	.20057	987.908	
328.15	.30168	.30168	988.991	
328.15	.41046	.41046	990.139	
328.15	.4886	.4886	990.952	
328.15	.57928	.57928	991.89	
328.15	.68865	.68865	992.98	
328.15	.78358	.78358	993.911	

System: formic acid + N-methylpyrrolidone + water; phases: Liquid
Fixed: Pressure, kPa = 101
Property: Speed of sound, m/s (Liquid); method: Sing-around technique in a fixed-path interferometer
Temperature, K	Molality, mol/kg of N-methylpyrrolidone	Molality, mol/kg of formic acid	Speed of sound, m/s	uncertainty
288.15	0	0	1465.88	
288.15	.09832	.09832	1474.95	
288.15	.20057	.20057	1483.59	
288.15	.30168	.30168	1491.86	
288.15	.41046	.41046	1500.05	
288.15	.4886	.4886	1505.72	
288.15	.57928	.57928	1512.01	
288.15	.68865	.68865	1519.08	
288.15	.78358	.78358	1524.84	
293.15	0	0	1482.84	
293.15	.09832	.09832	1490.11	
293.15	.20057	.20057	1497.79	
293.15	.30168	.30168	1505.13	
293.15	.41046	.41046	1512.15	
293.15	.4886	.4886	1517.32	
293.15	.57928	.57928	1522.86	
293.15	.68865	.68865	1529.06	
293.15	.78358	.78358	1534.13	
298.15	0	0	1496.85	
298.15	.09832	.09832	1503.57	
298.15	.20057	.20057	1510.35	
298.15	.30168	.30168	1516.86	
298.15	.41046	.41046	1522.8	
298.15	.4886	.4886	1527.34	
298.15	.57928	.57928	1532.2	
298.15	.68865	.68865	1537.62	
298.15	.78358	.78358	1542.04	
303.15	0	0	1509.25	
303.15	.09832	.09832	1515.27	
303.15	.20057	.20057	1521.31	
303.15	.30168	.30168	1526.99	
303.15	.41046	.41046	1531.87	
303.15	.4886	.4886	1535.86	
303.15	.57928	.57928	1540.09	
303.15	.68865	.68865	1544.77	
303.15	.78358	.78358	1548.57	
308.15	0	0	1519.82	
308.15	.09832	.09832	1525.37	
308.15	.20057	.20057	1530.63	
308.15	.30168	.30168	1535.61	
308.15	.41046	.41046	1539.65	
308.15	.4886	.4886	1542.96	
308.15	.57928	.57928	1546.63	
308.15	.68865	.68865	1550.59	
308.15	.78358	.78358	1553.82	
313.15	0	0	1528.89	
313.15	.09832	.09832	1533.99	
313.15	.20057	.20057	1538.29	
313.15	.30168	.30168	1542.65	
313.15	.41046	.41046	1545.91	
313.15	.4886	.4886	1548.71	
313.15	.57928	.57928	1551.83	
313.15	.68865	.68865	1555.16	
313.15	.78358	.78358	1557.85	
318.15	0	0	1536.56	
318.15	.09832	.09832	1540.83	
318.15	.20057	.20057	1544.49	
318.15	.30168	.30168	1548.18	
318.15	.41046	.41046	1550.85	
318.15	.4886	.4886	1553.19	
318.15	.57928	.57928	1555.8	
318.15	.68865	.68865	1558.53	
318.15	.78358	.78358	1560.72	
323.15	0	0	1542.73	
323.15	.09832	.09832	1546.22	
323.15	.20057	.20057	1549.35	
323.15	.30168	.30168	1552.4	
323.15	.41046	.41046	1554.56	
323.15	.4886	.4886	1556.47	
323.15	.57928	.57928	1558.6	
323.15	.68865	.68865	1560.76	
323.15	.78358	.78358	1562.49	
328.15	0	0	1547.61	
328.15	.09832	.09832	1550.39	
328.15	.20057	.20057	1552.94	
328.15	.30168	.30168	1555.44	
328.15	.41046	.41046	1557.1	
328.15	.4886	.4886	1558.61	
328.15	.57928	.57928	1560.3	
328.15	.68865	.68865	1561.92	
328.15	.78358	.78358	1563.21	

System: propionic acid + N-methylpyrrolidone + water; phases: Liquid
Fixed: Pressure, kPa = 101
Property: Mass density, kg/m3 (Liquid); method: Vibrating tube method
Temperature, K	Molality, mol/kg of N-methylpyrrolidone	Molality, mol/kg of propionic acid	Mass density, kg/m3	uncertainty
288.15	.09965	.09965	1000.092	
288.15	.14278	.14278	1000.517	
288.15	.20084	.20084	1001.073	
288.15	.24321	.24321	1001.488	
288.15	.29055	.29055	1001.937	
288.15	.33206	.33206	1002.33	
288.15	.40522	.40522	1003.033	
288.15	.442	.442	1003.397	
293.15	.09965	.09965	999.05	
293.15	.14278	.14278	999.416	
293.15	.20084	.20084	999.896	
293.15	.24321	.24321	1000.246	
293.15	.29055	.29055	1000.638	
293.15	.33206	.33206	1001.004	
293.15	.40522	.40522	1001.595	
293.15	.442	.442	1001.907	
298.15	.09965	.09965	997.807	
298.15	.14278	.14278	998.135	
298.15	.20084	.20084	998.568	
298.15	.24321	.24321	998.887	
298.15	.29055	.29055	999.245	
298.15	.33206	.33206	999.558	
298.15	.40522	.40522	1000.098	
298.15	.442	.442	1000.389	
303.15	.09965	.09965	996.381	
303.15	.14278	.14278	996.688	
303.15	.20084	.20084	997.104	
303.15	.24321	.24321	997.409	
303.15	.29055	.29055	997.748	
303.15	.33206	.33206	998.047	
303.15	.40522	.40522	998.557	
303.15	.442	.442	998.852	
308.15	.09965	.09965	994.645	
308.15	.14278	.14278	994.909	
308.15	.20084	.20084	995.259	
308.15	.24321	.24321	995.508	
308.15	.29055	.29055	995.792	
308.15	.33206	.33206	996.036	
308.15	.40522	.40522	996.48	
308.15	.442	.442	996.732	
313.15	.09965	.09965	992.718	
313.15	.14278	.14278	992.933	
313.15	.20084	.20084	993.224	
313.15	.24321	.24321	993.434	
313.15	.29055	.29055	993.686	
313.15	.33206	.33206	993.909	
313.15	.40522	.40522	994.271	
313.15	.442	.442	994.51	
318.15	.09965	.09965	990.646	
318.15	.14278	.14278	990.833	
318.15	.20084	.20084	991.096	
318.15	.24321	.24321	991.28	
318.15	.29055	.29055	991.491	
318.15	.33206	.33206	991.688	
318.15	.40522	.40522	992.046	
318.15	.442	.442	992.246	
323.15	.09965	.09965	988.393	
323.15	.14278	.14278	988.554	
323.15	.20084	.20084	988.776	
323.15	.24321	.24321	988.934	
323.15	.29055	.29055	989.121	
323.15	.33206	.33206	989.286	
323.15	.40522	.40522	989.579	
323.15	.442	.442	989.776	
328.15	.09965	.09965	985.748	
328.15	.14278	.14278	985.779	
328.15	.20084	.20084	985.825	
328.15	.24321	.24321	985.868	
328.15	.29055	.29055	985.917	
328.15	.33206	.33206	985.966	
328.15	.40522	.40522	986.055	
328.15	.442	.442	986.168	

System: propionic acid + N-methylpyrrolidone + water; phases: Liquid
Fixed: Pressure, kPa = 101
Property: Speed of sound, m/s (Liquid); method: Sing-around technique in a fixed-path interferometer
Temperature, K	Molality, mol/kg of N-methylpyrrolidone	Molality, mol/kg of propionic acid	Speed of sound, m/s	uncertainty
288.15	.10597	.10597	1477.05	
288.15	.18833	.18833	1484.63	
288.15	.28943	.28943	1494.34	
288.15	.41121	.41121	1505.39	
288.15	.54591	.54591	1515.49	
288.15	.61957	.61957	1521.04	
288.15	.70899	.70899	1527.31	
288.15	.80803	.80803	1533.89	
293.15	.10597	.10597	1493.06	
293.15	.18833	.18833	1500.39	
293.15	.28943	.28943	1509.2	
293.15	.41121	.41121	1519.36	
293.15	.54591	.54591	1530.76	
293.15	.61957	.61957	1536.26	
293.15	.70899	.70899	1542.54	
293.15	.80803	.80803	1549.13	
298.15	.10597	.10597	1506.58	
298.15	.18833	.18833	1513.14	
298.15	.28943	.28943	1521.24	
298.15	.41121	.41121	1531.19	
298.15	.54591	.54591	1540.23	
298.15	.61957	.61957	1545.01	
298.15	.70899	.70899	1550.58	
298.15	.80803	.80803	1556.53	
303.15	.10597	.10597	1518.22	
303.15	.18833	.18833	1524.41	
303.15	.28943	.28943	1531.16	
303.15	.41121	.41121	1540.13	
303.15	.54591	.54591	1548.18	
303.15	.61957	.61957	1552.34	
303.15	.70899	.70899	1557.2	
303.15	.80803	.80803	1562.71	
308.15	.10597	.10597	1528.11	
308.15	.18833	.18833	1533.96	
308.15	.28943	.28943	1539.53	
308.15	.41121	.41121	1547.59	
308.15	.54591	.54591	1554.68	
308.15	.61957	.61957	1558.32	
308.15	.70899	.70899	1562.52	
308.15	.80803	.80803	1567.34	
313.15	.10597	.10597	1536.03	
313.15	.18833	.18833	1540.1	
313.15	.28943	.28943	1544.14	
313.15	.41121	.41121	1550.02	
313.15	.54591	.54591	1555.09	
313.15	.61957	.61957	1557.65	
313.15	.70899	.70899	1560.54	
313.15	.80803	.80803	1564.02	
318.15	.10597	.10597	1542.7	
318.15	.18833	.18833	1546.22	
318.15	.28943	.28943	1549.64	
318.15	.41121	.41121	1554.6	
318.15	.54591	.54591	1558.86	
318.15	.61957	.61957	1560.97	
318.15	.70899	.70899	1563.34	
318.15	.80803	.80803	1566.19	
323.15	.10597	.10597	1548.03	
323.15	.18833	.18833	1550.94	
323.15	.28943	.28943	1553.79	
323.15	.41121	.41121	1557.92	
323.15	.54591	.54591	1561.41	
323.15	.61957	.61957	1563.12	
323.15	.70899	.70899	1565.01	
323.15	.80803	.80803	1567.28	
328.15	.10597	.10597	1551.98	
328.15	.18833	.18833	1554.41	
328.15	.28943	.28943	1556.72	
328.15	.41121	.41121	1560.07	
328.15	.54591	.54591	1562.84	
328.15	.61957	.61957	1564.17	
328.15	.70899	.70899	1565.62	
328.15	.80803	.80803	1567.33	

System: pentanoic acid + N-methylpyrrolidone + water; phases: Liquid
Fixed: Pressure, kPa = 101
Property: Mass density, kg/m3 (Liquid); method: Vibrating tube method
Temperature, K	Molality, mol/kg of N-methylpyrrolidone	Molality, mol/kg of pentanoic acid	Mass density, kg/m3	uncertainty
288.15	.10597	.10597	1000.307	
288.15	.18833	.18833	1001.221	
288.15	.28943	.28943	1002.321	
288.15	.41121	.41121	1003.615	
288.15	.54591	.54591	1004.985	
288.15	.61957	.61957	1005.742	
288.15	.70899	.70899	1006.624	
288.15	.80803	.80803	1007.579	
293.15	.10597	.10597	999.306	
293.15	.18833	.18833	1000.193	
293.15	.28943	.28943	1001.227	
293.15	.41121	.41121	1002.43	
293.15	.54591	.54591	1003.725	
293.15	.61957	.61957	1004.481	
293.15	.70899	.70899	1005.35	
293.15	.80803	.80803	1006.283	
298.15	.10597	.10597	998.068	
298.15	.18833	.18833	998.877	
298.15	.28943	.28943	999.834	
298.15	.41121	.41121	1000.956	
298.15	.54591	.54591	1002.172	
298.15	.61957	.61957	1002.839	
298.15	.70899	.70899	1003.627	
298.15	.80803	.80803	1004.482	
303.15	.10597	.10597	996.617	
303.15	.18833	.18833	997.381	
303.15	.28943	.28943	998.286	
303.15	.41121	.41121	999.344	
303.15	.54591	.54591	1000.487	
303.15	.61957	.61957	1001.128	
303.15	.70899	.70899	1001.905	
303.15	.80803	.80803	1002.719	
308.15	.10597	.10597	994.968	
308.15	.18833	.18833	995.693	
308.15	.28943	.28943	996.554	
308.15	.41121	.41121	997.563	
308.15	.54591	.54591	998.642	
308.15	.61957	.61957	999.238	
308.15	.70899	.70899	999.916	
308.15	.80803	.80803	1000.683	
313.15	.10597	.10597	993.057	
313.15	.18833	.18833	993.725	
313.15	.28943	.28943	994.509	
313.15	.41121	.41121	995.45	
313.15	.54591	.54591	996.452	
313.15	.61957	.61957	996.981	
313.15	.70899	.70899	997.67	
313.15	.80803	.80803	998.426	
318.15	.10597	.10597	991.02	
318.15	.18833	.18833	991.661	
318.15	.28943	.28943	992.408	
318.15	.41121	.41121	993.291	
318.15	.54591	.54591	994.222	
318.15	.61957	.61957	994.755	
318.15	.70899	.70899	995.391	
318.15	.80803	.80803	996.091	
323.15	.10597	.10597	988.661	
323.15	.18833	.18833	989.178	
323.15	.28943	.28943	989.8	
323.15	.41121	.41121	990.562	
323.15	.54591	.54591	991.395	
323.15	.61957	.61957	991.884	
323.15	.70899	.70899	992.475	
323.15	.80803	.80803	993.092	
328.15	.10597	.10597	986.212	
328.15	.18833	.18833	986.633	
328.15	.28943	.28943	987.139	
328.15	.41121	.41121	987.74	
328.15	.54591	.54591	988.394	
328.15	.61957	.61957	988.785	
328.15	.70899	.70899	989.215	
328.15	.80803	.80803	989.697	

System: pentanoic acid + N-methylpyrrolidone + water; phases: Liquid
Fixed: Pressure, kPa = 101
Property: Speed of sound, m/s (Liquid); method: Sing-around technique in a fixed-path interferometer
Temperature, K	Molality, mol/kg of N-methylpyrrolidone	Molality, mol/kg of pentanoic acid	Speed of sound, m/s	uncertainty
288.15	.09965	.09965	1478.61	
288.15	.14278	.14278	1483.68	
288.15	.20084	.20084	1490.7	
288.15	.24321	.24321	1495.31	
288.15	.29055	.29055	1500.71	
288.15	.33206	.33206	1505.15	
288.15	.40522	.40522	1512.89	
288.15	.442	.442	1516.39	
293.15	.09965	.09965	1495.28	
293.15	.14278	.14278	1501.31	
293.15	.20084	.20084	1506.64	
293.15	.24321	.24321	1512.95	
293.15	.29055	.29055	1517.6	
293.15	.33206	.33206	1521.54	
293.15	.40522	.40522	1526.54	
293.15	.442	.442	1528.74	
298.15	.09965	.09965	1508.12	
298.15	.14278	.14278	1513.54	
298.15	.20084	.20084	1518.75	
298.15	.24321	.24321	1523.84	
298.15	.29055	.29055	1528.22	
298.15	.33206	.33206	1531.34	
298.15	.40522	.40522	1535.45	
298.15	.442	.442	1537.14	
303.15	.09965	.09965	1519.28	
303.15	.14278	.14278	1524.06	
303.15	.20084	.20084	1529.43	
303.15	.24321	.24321	1533.09	
303.15	.29055	.29055	1537.28	
303.15	.33206	.33206	1539.6	
303.15	.40522	.40522	1542.92	
303.15	.442	.442	1544.21	
308.15	.09965	.09965	1528.85	
308.15	.14278	.14278	1533.02	
308.15	.20084	.20084	1538.49	
308.15	.24321	.24321	1540.85	
308.15	.29055	.29055	1544.79	
308.15	.33206	.33206	1546.62	
308.15	.40522	.40522	1549	
308.15	.442	.442	1550.01	
313.15	.09965	.09965	1537.04	
313.15	.14278	.14278	1540.52	
313.15	.20084	.20084	1545.62	
313.15	.24321	.24321	1547.21	
313.15	.29055	.29055	1550.68	
313.15	.33206	.33206	1552.26	
313.15	.40522	.40522	1553.8	
313.15	.442	.442	1554.62	
318.15	.09965	.09965	1543.55	
318.15	.14278	.14278	1546.55	
318.15	.20084	.20084	1550.98	
318.15	.24321	.24321	1552.2	
318.15	.29055	.29055	1555.1	
318.15	.33206	.33206	1556.45	
318.15	.40522	.40522	1557.38	
318.15	.442	.442	1558.06	
323.15	.09965	.09965	1548.67	
323.15	.14278	.14278	1551.25	
323.15	.20084	.20084	1554.94	
323.15	.24321	.24321	1555.93	
323.15	.29055	.29055	1558.24	
323.15	.33206	.33206	1559.42	
323.15	.40522	.40522	1559.92	
323.15	.442	.442	1560.35	
328.15	.09965	.09965	1552.49	
328.15	.14278	.14278	1554.72	
328.15	.20084	.20084	1557.66	
328.15	.24321	.24321	1558.49	
328.15	.29055	.29055	1560.19	
328.15	.33206	.33206	1561.17	
328.15	.40522	.40522	1561.05	
328.15	.442	.442	1561.54	
