Measured thermophysical data. Liquid liquid equilibrium of 1-propanol, 2-propanol, 2-methyl-2-propanol or  2-butanol + sodium sulfite + water aqueous two phase systems
Source: Fluid Phase Equilib., 2012, 10.1016/j.fluid.2012.05.012
Compound 1: 1-propanol, C3H8O, purity 99.5%
Compound 2: 2-propanol, C3H8O, purity 99.7%
Compound 3: 2-methyl-2-propanol, C4H10O, purity 99%
Compound 4: (RS)-2-butanol, C4H10O, purity 99%
Compound 5: sodium sulfite, Na2O3S, purity 99.5%
Compound 6: water, H2O, purity 99.7%

System: 1-propanol + water + sodium sulfite; phases: Liquid, Crystal
Fixed: Temperature, K = 298.15
Fixed: Pressure, kPa = 101
Property: Mass fraction of sodium sulfite (Liquid); method: Titration method
Mass fraction of 1-propanol	Mass fraction of sodium sulfite	uncertainty
.0712	.1235	
.0782	.1159	
.0936	.1017	
.0864	.1079	
.1191	.084	
.1123	.088	
.1257	.0799	
.135	.0746	
.1556	.0653	
.166	.0616	
.1777	.0579	
.1935	.0531	
.2257	.0451	
.2455	.0412	
.2678	.0376	
.281	.0355	

System: 1-propanol + water + sodium sulfite; phases: Liquid mixture 2, Liquid mixture 1
Property: Mass fraction of sodium sulfite (Liquid mixture 2); method: flame photometry
Property: Mass fraction of 1-propanol (Liquid mixture 1); method: flame photometry
Property: Mass fraction of sodium sulfite (Liquid mixture 1); method: flame photometry
Temperature, K	Pressure, kPa	Mass fraction of 1-propanol	Mass fraction of sodium sulfite	uncertainty	Mass fraction of 1-propanol	uncertainty	Mass fraction of sodium sulfite	uncertainty
298.15	101.325	.0683	.1178		.6046		.0043	
298.15	101.325	.0863	.1069		.588		.0047	
298.15	101.325	.1061	.0938		.5611		.0065	
298.15	101.325	.1143	.0831		.5347		.0079	
298.15	101.325	.1591	.0631		.4887		.0109	

System: 1-propanol + water + sodium sulfite; phases: Liquid, Liquid
Fixed: Pressure, kPa = 101
Fixed: Solvent: Amount ratio of component to other component of binary solvent of sodium sulfite = .00885
Property: Mole fraction of 1-propanol (Liquid); method: Titration method
Temperature, K	Mole fraction of 1-propanol	uncertainty
293.15	.099	.003
298.15	.094	.003
303.15	.092	.003
308.15	.09	.003
313.15	.085	.003
318.15	.085	.003
323.15	.085	.003
328.15	.085	.003

System: 1-propanol + water + sodium sulfite; phases: Liquid
Fixed: Temperature, K = 298.15
Fixed: Pressure, kPa = 101
Property: Refractive index (Na D-line) (Liquid); method: Standard Abbe refractometry
Mass fraction of 1-propanol	Mass fraction of sodium sulfite	Refractive index (Na D-line)	uncertainty
0	.0476	1.3419	.0002
.0067	.044	1.3419	.0002
.0133	.0409	1.3419	.0002
.0195	.0374	1.3419	.0002
.025	.0345	1.3415	.0002
.0318	.0312	1.3415	.0002
.0457	.0274	1.342	.0002
.0446	.0248	1.3414	.0002
.0511	.0216	1.3413	.0002
.0556	.0185	1.3411	.0002
.0622	.0155	1.3412	.0002
.0689	.0123	1.3411	.0002
.0738	.0093	1.3409	.0002
.0917	.006	1.3419	.0002
.085	.0032	1.3411	.0002
.0907	.0021	1.3407	.0002
.0968	0	1.3407	.0002

System: 2-propanol + water + sodium sulfite; phases: Liquid, Crystal
Fixed: Temperature, K = 298.15
Fixed: Pressure, kPa = 101
Property: Mass fraction of sodium sulfite (Liquid); method: Titration method
Mass fraction of 2-propanol	Mass fraction of sodium sulfite	uncertainty
.0488	.1873	
.0609	.1723	
.075	.1582	
.09	.1452	
.1051	.1341	
.1218	.1232	
.1582	.1032	
.1406	.1126	
.1773	.0942	
.1955	.087	
.2073	.0812	
.2209	.076	
.2327	.0714	
.2518	.0645	
.2518	.0645	
.2673	.0591	
.2839	.053	
.2982	.049	
.3125	.0435	
.33	.0397	
.3462	.0345	
.3645	.0299	
.3826	.0253	

System: 2-propanol + water + sodium sulfite; phases: Liquid mixture 2, Liquid mixture 1
Property: Mass fraction of 2-propanol (Liquid mixture 2); method: flame photometry
Property: Mass fraction of 2-propanol (Liquid mixture 1); method: flame photometry
Property: Mass fraction of sodium sulfite (Liquid mixture 1); method: flame photometry
Temperature, K	Pressure, kPa	Mass fraction of sodium sulfite	Mass fraction of 2-propanol	uncertainty	Mass fraction of 2-propanol	uncertainty	Mass fraction of sodium sulfite	uncertainty
298.15	101.325	.2344	.0426		.6303		.0034	
298.15	101.325	.2088	.046		.5836		.0048	
298.15	101.325	.1873	.0488		.5363		.008	
298.15	101.325	.1609	.0664		.4781		.0126	
298.15	101.325	.1324	.1084		.4147		.022	

System: 2-propanol + water + sodium sulfite; phases: Liquid, Liquid
Fixed: Pressure, kPa = 101
Fixed: Solvent: Amount ratio of component to other component of binary solvent of sodium sulfite = .00889
Property: Mole fraction of 2-propanol (Liquid); method: Titration method
Temperature, K	Mole fraction of 2-propanol	uncertainty
293.15	.133	.003
298.15	.14	.003
303.15	.142	.003
308.15	.147	.003
313.15	.152	.003
318.15	.155	.003
323.15	.146	.003
328.15	.145	.003

System: 2-propanol + water + sodium sulfite; phases: Liquid
Fixed: Temperature, K = 298.15
Fixed: Pressure, kPa = 101
Property: Refractive index (Na D-line) (Liquid); method: Standard Abbe refractometry
Mass fraction of 2-propanol	Mass fraction of sodium sulfite	Refractive index (Na D-line)	uncertainty
0	.0476	1.3422	.0002
.0131	.041	1.3422	.0002
.0191	.0377	1.3417	.0002
.0247	.0343	1.3417	.0002
.0312	.0312	1.3415	.0002
.0371	.0276	1.3414	.0002
.0439	.0248	1.3412	.0002
.05	.0217	1.3412	.0002
.0555	.0185	1.341	.0002
.0614	.0153	1.341	.0002
.0677	.0124	1.341	.0002
.0063	.0443	1.3421	.0002
.073	.0091	1.3408	.0002
.0797	.0061	1.3408	.0002
.086	.0037	1.3407	.0002
.0914	.0015	1.3407	.0002
.0955	0	1.3415	.0002

System: 2-methyl-2-propanol + water + sodium sulfite; phases: Liquid, Crystal
Fixed: Temperature, K = 298.15
Fixed: Pressure, kPa = 101
Property: Mass fraction of sodium sulfite (Liquid); method: Titration method
Mass fraction of 2-methyl-2-propanol	Mass fraction of sodium sulfite	uncertainty
.0661	.115	
.0709	.1098	
.0765	.1047	
.0818	.1001	
.0892	.0941	
.098	.0881	
.1067	.0822	
.113	.0788	
.1218	.0741	
.1321	.0687	
.1418	.0647	
.1508	.0608	
.1675	.0554	
.1801	.05103	
.1915	.0474	
.2143	.0415	
.2332	.0375	
.2592	.0328	
.2816	.0294	
.3078	.0258	
.319	.0243	

System: 2-methyl-2-propanol + water + sodium sulfite; phases: Liquid mixture 2, Liquid mixture 1
Property: Mass fraction of sodium sulfite (Liquid mixture 2); method: flame photometry
Property: Mass fraction of 2-methyl-2-propanol (Liquid mixture 1); method: flame photometry
Property: Mass fraction of sodium sulfite (Liquid mixture 1); method: flame photometry
Temperature, K	Pressure, kPa	Mass fraction of 2-methyl-2-propanol	Mass fraction of sodium sulfite	uncertainty	Mass fraction of 2-methyl-2-propanol	uncertainty	Mass fraction of sodium sulfite	uncertainty
298.15	101.325	.0556	.1387		.6441		.0006	
298.15	101.325	.0681	.1182		.6102		.0013	
298.15	101.325	.0831	.1063		.5874		.0016	
298.15	101.325	.1005	.091		.5574		.0031	
298.15	101.325	.1178	.0749		.5151		.0059	

System: 2-methyl-2-propanol + water + sodium sulfite; phases: Liquid, Liquid
Fixed: Pressure, kPa = 101
Fixed: Solvent: Amount ratio of component to other component of binary solvent of sodium sulfite = .0089
Property: Mole fraction of 2-methyl-2-propanol (Liquid); method: Titration method
Temperature, K	Mole fraction of 2-methyl-2-propanol	uncertainty
293.15	.07	.003
298.15	.062	.003
303.15	.055	.003
308.15	.049	.003
313.15	.045	.003
318.15	.041	.003
323.15	.038	.003
328.15	.034	.003

System: 2-methyl-2-propanol + water + sodium sulfite; phases: Liquid
Fixed: Temperature, K = 298.15
Fixed: Pressure, kPa = 101
Property: Refractive index (Na D-line) (Liquid); method: Standard Abbe refractometry
Mass fraction of 2-methyl-2-propanol	Mass fraction of sodium sulfite	Refractive index (Na D-line)	uncertainty
0	.0491	1.3422	.0002
.0139	.0447	1.3426	.0002
.0117	.0427	1.3419	.0002
.0182	.039	1.342	.0002
.0255	.0355	1.3418	.0002
.0362	.0322	1.3423	.0002
.0381	.0287	1.3419	.0002
.044	.0257	1.3422	.0002
.0481	.0223	1.342	.0002
.0537	.0186	1.3419	.0002
.0581	.0161	1.3417	.0002
.0625	.0133	1.3417	.0002
.067	.0099	1.3415	.0002
.0714	.0036	1.3406	.0002
.0991	.0015	1.343	.0002
.0929	0	1.3421	.0002

System: (RS)-2-butanol + water + sodium sulfite; phases: Liquid, Crystal
Fixed: Temperature, K = 298.15
Fixed: Pressure, kPa = 101
Property: Mass fraction of sodium sulfite (Liquid); method: Titration method
Mass fraction of (RS)-2-butanol	Mass fraction of sodium sulfite	uncertainty
.0252	.1507	
.0314	.132	
.0372	.1172	
.043	.1047	
.0495	.0925	
.0539	.0854	
.059	.0777	
.0663	.0678	
.0719	.061	
.0785	.0539	
.0825	.0497	
.0872	.0452	
.0902	.0426	
.0961	.0373	
.1007	.033	
.1052	.0292	
.1103	.0253	
.1145	.0233	
.118	.0213	
.1187	.0205	
.1233	.0178	
.1257	.0165	
.1291	.0143	
.1333	.0119	

System: (RS)-2-butanol + water + sodium sulfite; phases: Liquid mixture 2, Liquid mixture 1
Property: Mass fraction of sodium sulfite (Liquid mixture 2); method: flame photometry
Property: Mass fraction of sodium sulfite (Liquid mixture 1); method: flame photometry
Property: Mass fraction of (RS)-2-butanol (Liquid mixture 1); method: flame photometry
Temperature, K	Pressure, kPa	Mass fraction of (RS)-2-butanol	Mass fraction of sodium sulfite	uncertainty	Mass fraction of sodium sulfite	uncertainty	Mass fraction of (RS)-2-butanol	uncertainty
298.15	101.325	.1084	.0378		.7918		.0006	
298.15	101.325	.0853	.0493		.7826		.0006	
298.15	101.325	.0618	.0609		.7677		.0007	
298.15	101.325	.0437	.0849		.7533		.001	

System: (RS)-2-butanol + water + sodium sulfite; phases: Liquid, Liquid
Fixed: Pressure, kPa = 101
Fixed: Solvent: Amount ratio of component to other component of binary solvent of sodium sulfite = .00885
Property: Mole fraction of (RS)-2-butanol (Liquid); method: Titration method
Temperature, K	Mole fraction of (RS)-2-butanol	uncertainty
293.15	.026	.003
298.15	.024	.003
303.15	.022	.003
308.15	.021	.003
313.15	.02	.003
318.15	.019	.003
323.15	.019	.003
328.15	.017	.003

System: (RS)-2-butanol + water + sodium sulfite; phases: Liquid
Fixed: Temperature, K = 298.15
Fixed: Pressure, kPa = 101
Property: Refractive index (Na D-line) (Liquid); method: Standard Abbe refractometry
Mass fraction of (RS)-2-butanol	Mass fraction of sodium sulfite	Refractive index (Na D-line)	uncertainty
0	.0468	1.3421	.0002
.0064	.0445	1.3422	.0002
.0128	.0411	1.3422	.0002
.0191	.0378	1.3421	.0002
.0249	.0344	1.3421	.0002
.0312	.0313	1.3422	.0002
.0379	.0279	1.3422	.0002
.0433	.0246	1.342	.0002
.0498	.0217	1.3421	.0002
.0551	.0184	1.3421	.0002
.0622	.0152	1.342	.0002
.0974	.0118	1.3451	.0002
.0744	.0092	1.3421	.0002
.0778	.006	1.3419	.0002
.0831	.0035	1.342	.0002
.0913	.0021	1.3424	.0002
.0968	0	1.3425	.0002
