Measured thermophysical data. Heat capacities of selected chlorohydrocarbons
Source: Fluid Phase Equilib., 2012, 10.1016/j.fluid.2012.09.001
Compound 1: trichloroethene, C2HCl3, purity 99.91%
Compound 2: (Z)-1,2-dichloroethene, C2H2Cl2, purity 99.2%
Compound 3: (E)-1,2-dichloroethene, C2H2Cl2, purity 99.7%
Compound 4: 1,1-dichloropropane, C3H6Cl2, purity 97.44%
Compound 5: 1,2-dichloropropane, C3H6Cl2, purity 99.6%
Compound 6: 2,2-dichloropropane, C3H6Cl2, purity 98.8%
Compound 7: (trichloromethyl)benzene, C7H5Cl3, purity 99%

System: trichloroethene; phases: Liquid
Fixed: Pressure, kPa = 101.325
Property: Molar heat capacity at constant pressure, J/K/mol (Liquid); method: Flow calorimetry
Temperature, K	Molar heat capacity at constant pressure, J/K/mol	uncertainty
260.64	126.71	1.2671
260.64	126.63	1.2663
260.64	126.63	1.2663
260.64	126.63	1.2663
265.75	126.71	1.2671
265.75	126.8	1.268
265.75	126.71	1.2671
265.75	126.96	1.2696
270.85	126.71	1.2671
270.85	126.96	1.2696
270.85	126.63	1.2663
270.85	127.04	1.2704
275.96	127.13	1.2713
275.96	127.04	1.2704
275.96	126.96	1.2696
275.96	127.38	1.2738
281.06	127.38	1.2738
281.06	127.38	1.2738
281.06	127.46	1.2746
281.06	127.79	1.2779
286.17	127.96	1.2796
286.17	127.96	1.2796
286.17	127.88	1.2788
286.17	128.38	1.2838
291.27	128.21	1.2821
291.27	128.38	1.2838
291.27	128.29	1.2829
291.27	128.46	1.2846
296.38	128.54	1.2854
296.38	128.38	1.2838
296.38	128.46	1.2846
296.38	128.96	1.2896
301.48	128.79	1.2879
301.48	128.54	1.2854
301.48	128.96	1.2896
301.48	129.04	1.2904
309.14	129.21	1.2921
309.14	129.04	1.2904
309.14	130.29	1.3029
319.35	130.29	1.3029
319.35	130.29	1.3029
319.35	131.12	1.3112
329.56	130.95	1.3095
329.56	131.12	1.3112

System: (Z)-1,2-dichloroethene; phases: Liquid
Fixed: Pressure, kPa = 101.325
Property: Molar heat capacity at constant pressure, J/K/mol (Liquid); method: Flow calorimetry
Temperature, K	Molar heat capacity at constant pressure, J/K/mol	uncertainty
258.09	110.33	1.1033
258.09	110.08	1.1008
263.2	110.33	1.1033
263.2	110.42	1.1042
268.3	110.58	1.1058
268.3	110.75	1.1075
273.41	111	1.11
273.41	111	1.11
278.51	111.08	1.1108
278.51	111	1.11
283.62	111.41	1.1141
283.62	111.58	1.1158
288.72	111.91	1.1191
288.72	111.75	1.1175
293.83	112.66	1.1266
293.83	112.16	1.1216
293.83	112.58	1.1258
293.83	112.25	1.1225
298.93	112.99	1.1299
298.93	112.99	1.1299
298.93	112.66	1.1266
298.93	112.49	1.1249
304.04	113.41	1.1341
304.04	113.49	1.1349
309.14	113.91	1.1391
309.14	113.74	1.1374

System: (E)-1,2-dichloroethene; phases: Liquid
Fixed: Pressure, kPa = 101.325
Property: Molar heat capacity at constant pressure, J/K/mol (Liquid); method: Flow calorimetry
Temperature, K	Molar heat capacity at constant pressure, J/K/mol	uncertainty
268.3	113.08	1.1308
268.3	112.74	1.1274
268.3	112.41	1.1241
268.3	112.08	1.1208
278.51	112.99	1.1299
278.51	112.83	1.1283
278.51	112.41	1.1241
278.51	112.08	1.1208
288.72	113.49	1.1349
288.72	113.41	1.1341
288.72	112.91	1.1291
288.72	112.58	1.1258
298.93	114.24	1.1424
298.93	113.99	1.1399
298.93	113.82	1.1382
298.93	113.41	1.1341
309.14	115.07	1.1507
309.14	114.49	1.1449
309.14	114.16	1.1416
309.14	113.66	1.1366

System: 1,1-dichloropropane; phases: Liquid
Fixed: Pressure, kPa = 101.325
Property: Molar heat capacity at constant pressure, J/K/mol (Liquid); method: Flow calorimetry
Temperature, K	Molar heat capacity at constant pressure, J/K/mol	uncertainty
268.3	148.83	1.4883
268.3	149.66	1.4966
268.31	149.49	1.4949
278.51	150.33	1.5033
278.51	150.24	1.5024
278.51	149.99	1.4999
288.72	151.82	1.5182
288.72	151.99	1.5199
288.72	152.4	1.524
298.93	152.82	1.5282
298.93	152.82	1.5282
298.93	153.65	1.5365
309.14	155.23	1.5523
309.14	154.57	1.5457
309.14	154.15	1.5415
319.35	155.9	1.559
319.35	157.73	1.5773
319.35	155.56	1.5556
329.56	157.23	1.5723
329.56	157.31	1.5731
329.56	157.64	1.5764
339.77	158.97	1.5897
339.77	159.06	1.5906
339.77	159.31	1.5931

System: 1,2-dichloropropane; phases: Liquid
Fixed: Pressure, kPa = 101.325
Property: Molar heat capacity at constant pressure, J/K/mol (Liquid); method: Flow calorimetry
Temperature, K	Molar heat capacity at constant pressure, J/K/mol	uncertainty
268.3	153.32	1.5332
268.3	152.99	1.5299
278.51	154.15	1.5415
278.51	153.9	1.539
288.72	155.4	1.554
288.72	155.15	1.5515
298.93	156.81	1.5681
298.93	156.64	1.5664
309.14	158.06	1.5806
309.14	157.73	1.5773
319.35	159.39	1.5939
319.35	159.22	1.5922
329.56	161.05	1.6105
329.56	161.22	1.6122
339.77	162.8	1.628
339.77	162.8	1.628

System: 2,2-dichloropropane; phases: Liquid
Fixed: Pressure, kPa = 101.325
Property: Molar heat capacity at constant pressure, J/K/mol (Liquid); method: Flow calorimetry
Temperature, K	Molar heat capacity at constant pressure, J/K/mol	uncertainty
260.64	150.33	1.5033
260.64	150.49	1.5049
260.64	150.24	1.5024
268.3	151.41	1.5141
268.3	151.24	1.5124
268.3	150.99	1.5099
278.52	152.32	1.5232
278.52	152.32	1.5232
278.52	152.24	1.5224
288.72	154.07	1.5407
288.72	153.98	1.5398
288.72	153.82	1.5382
298.93	155.65	1.5565
298.93	155.65	1.5565
298.93	154.98	1.5498
309.14	157.39	1.5739
309.14	157.14	1.5714
309.14	156.98	1.5698
319.35	159.22	1.5922
319.35	158.81	1.5881
319.35	158.89	1.5889
329.56	161.13	1.6113
329.56	160.22	1.6022
329.56	160.22	1.6022

System: (trichloromethyl)benzene; phases: Liquid
Fixed: Pressure, kPa = 101.325
Property: Molar heat capacity at constant pressure, J/K/mol (Liquid); method: Flow calorimetry
Temperature, K	Molar heat capacity at constant pressure, J/K/mol	uncertainty
260.64	209.61	2.0961
260.64	209.36	2.0936
260.64	209.11	2.0911
265.75	210.94	2.1094
265.75	210.44	2.1044
265.75	210.27	2.1027
270.85	211.44	2.1144
270.85	211.35	2.1135
270.85	211.19	2.1119
275.96	212.77	2.1277
275.96	212.52	2.1252
275.96	212.52	2.1252
281.06	214.18	2.1418
281.06	213.93	2.1393
281.06	213.93	2.1393
286.17	215.59	2.1559
286.17	215.59	2.1559
286.17	215.34	2.1534
291.27	217.09	2.1709
291.27	217.01	2.1701
291.27	216.92	2.1692
296.38	217.76	2.1776
296.38	217.92	2.1792
296.38	218.01	2.1801
301.48	219.34	2.1934
301.48	219.17	2.1917
301.48	219.25	2.1925
309.14	220.75	2.2075
319.35	223.83	2.2383
329.56	226.49	2.2649
339.77	228.56	2.2856
349.98	230.89	2.3089
