Measured thermophysical data. Modeling the binary system Mn(NO3)2-H2O with the extended universal quasichemical (UNIQUAC) model.
Source: Fluid Phase Equilib., 2015, 10.1016/j.fluid.2015.04.008
Compound 1: manganese nitrate, MnN2O6, purity 99%
Compound 2: water, H2O

System: water + manganese nitrate; phases: Liquid, Crystal
Fixed: Pressure, kPa = 101
Property: Mass fraction of manganese nitrate (Liquid); method: synthetic method
Temperature, K	Mass fraction of manganese nitrate	uncertainty
265.65	.1583	.05
258.15	.2568	.05
250.65	.3213	.05
248.15	.339	.05
245.65	.356	.05
244.15	.3642	.05

System: water + manganese nitrate; phases: Liquid, Crystal of intercomponent compound 1
Fixed: Pressure, kPa = 101
Property: Mass fraction of manganese nitrate (Liquid); method: synthetic method
Temperature, K	Mass fraction of manganese nitrate	uncertainty
244.15	.4222	.05
248.15	.4279	.05
258.15	.4594	.05
266.15	.4738	.05
280.65	.5165	.05
283.15	.5312	.05
293.15	.5761	.05
297.15	.5974	.05
298.15	.6183	.05

System: water + manganese nitrate; phases: Liquid, Crystal of intercomponent compound 1
Fixed: Pressure, kPa = 101
Property: Mass fraction of manganese nitrate (Liquid); method: synthetic method
Temperature, K	Mass fraction of manganese nitrate	uncertainty
273.15	.503	.05
278.15	.5261	.05
288.15	.5601	.05
300.15	.629	.05
303.15	.6507	.05
306.15	.6694	.05
308.15	.6852	.05

System: water + manganese nitrate; phases: Liquid, Crystal, Crystal of intercomponent compound 1
Property: Mass fraction of manganese nitrate (Liquid); method: synthetic method
Pressure, kPa	Mass fraction of manganese nitrate	uncertainty
101	.41	.05

System: water + manganese nitrate; phases: Liquid, Crystal of intercomponent compound 1, Crystal of intercomponent compound 2
Property: Mass fraction of manganese nitrate (Liquid); method: synthetic method
Pressure, kPa	Mass fraction of manganese nitrate	uncertainty
101	.6212	.05

System: water + manganese nitrate; phases: Liquid, Crystal, Crystal of intercomponent compound 1
Property: Solid-liquid equilibrium temperature, K (Liquid); method: synthetic method
Pressure, kPa	Solid-liquid equilibrium temperature, K	uncertainty
101	237.15	.100000000000023

System: water + manganese nitrate; phases: Liquid, Crystal of intercomponent compound 1, Crystal of intercomponent compound 2
Property: Solid-liquid equilibrium temperature, K (Liquid); method: synthetic method
Pressure, kPa	Solid-liquid equilibrium temperature, K	uncertainty
101	298.65	.100000000000023
