Measured thermophysical data. Vapour liquid equilibrium for  -myrcene and carbon dioxide and/or hydrogen  and the volume expansion of  -myrcene or limonene in CO2 at 323.15K
Source: Fluid Phase Equilib., 2009, 10.1016/j.fluid.2009.04.020
Compound 1: hydrogen, H2, purity 99.998%
Compound 2: carbon dioxide, CO2, purity 99.998%
Compound 3: (R)-1-methyl-4-(1-methylethenyl)cyclohexene, C10H16
Compound 4: 2-methyl-6-methylene-2,7-octadiene, C10H16

System: 2-methyl-6-methylene-2,7-octadiene + carbon dioxide; phases: Liquid, Gas
Property: Vapor or sublimation pressure, kPa (Liquid); method: Closed cell (Static) method
Mole fraction of 2-methyl-6-methylene-2,7-octadiene	Temperature, K	Vapor or sublimation pressure, kPa	uncertainty
.4858	323.15	7040	.704
.4107	323.15	7990	.799
.354	323.15	8570	.857
.2983	323.15	9020	.902
.2049	323.15	9350	.935
.144	323.15	9460	.946

System: 2-methyl-6-methylene-2,7-octadiene + carbon dioxide; phases: Gas, Liquid
Property: Mole fraction of 2-methyl-6-methylene-2,7-octadiene (Gas); method: Chromatography
Mole fraction of 2-methyl-6-methylene-2,7-octadiene	Temperature, K	Mole fraction of 2-methyl-6-methylene-2,7-octadiene	uncertainty
.4858	323.15	.0028	.0005
.4107	323.15	.0056	.0005
.354	323.15	.0078	.0005
.2983	323.15	.0109	.0005
.2049	323.15	.0219	.0005
.144	323.15	.032	.0005

System: 2-methyl-6-methylene-2,7-octadiene + carbon dioxide + hydrogen; phases: Liquid, Gas
Property: Mole fraction of hydrogen (Liquid); method: Chromatography
Property: Mole fraction of hydrogen (Gas); method: Chromatography
Property: Mole fraction of 2-methyl-6-methylene-2,7-octadiene (Gas); method: Chromatography
Temperature, K	Pressure, kPa	Mole fraction of 2-methyl-6-methylene-2,7-octadiene	Mole fraction of hydrogen	uncertainty	Mole fraction of hydrogen	uncertainty	Mole fraction of 2-methyl-6-methylene-2,7-octadiene	uncertainty
323.15	10000	.4982	.1046	.0009	.5881	.0005	.0025	.0005
323.15	13000	.3719	.1057	.0009	.5196	.0005	.0025	.0005
323.15	13000	.3027	.0879	.0009	.4144	.0005	.0049	.0005
323.15	13000	.2315	.0716	.0009	.2917	.0005	.0046	.0005
323.15	14000	.448	.1271	.0009	.6404	.0005	.0042	.0005
323.15	14000	.3634	.109	.0009	.5316	.0005	.0025	.0005
323.15	14000	.2913	.0936	.0009	.4201	.0005	.0049	.0005
323.15	14000	.2161	.0792	.0009	.3017	.0005	.0038	.0005
323.15	10000	.424	.0873	.0009	.4902	.0005	.0024	.0005
323.15	10000	.3504	.0679	.0009	.3681	.0005	.0049	.0005
323.15	10000	.2926	.054	.0009	.2707	.0005	.0041	.0005
323.15	11000	.4802	.1111	.0009	.6074	.0005	.0054	.0005
323.15	11000	.4047	.0922	.0009	.4998	.0005	.0026	.0005
323.15	11000	.3308	.0749	.0009	.383	.0005	.0048	.0005
323.15	11000	.2679	.0596	.0009	.2797	.0005	.0022	.0005
323.15	13000	.4565	.123	.0009	.6267	.0005	.0043	.0005
