Measured thermophysical data. Determination and correlation of cefoperazone solubility in different pure solvents and binary mixture
Source: Fluid Phase Equilib., 2014, 10.1016/j.fluid.2013.11.005
Compound 1: cefoperazone, C25H26N9O8S2, purity 99%
Compound 2: acetone, C3H6O, purity 99.5%
Compound 3: ethanol, C2H6O, purity 99.5%
Compound 4: 2-propanol, C3H8O, purity 99.5%
Compound 5: water, H2O, purity 99.8%

System: acetone + cefoperazone; phases: Liquid, Crystal
Fixed: Pressure, kPa = 101
Property: Mole fraction of cefoperazone (Liquid); method: Gravimetric Method
Temperature, K	Mole fraction of cefoperazone	uncertainty
278.15	.00632	.000316
283.15	.005876	.0002938
288.15	.005619	.00028095
293.15	.005433	.00027165
298.15	.005262	.0002631
303.15	.005135	.00025675
308.15	.005056	.0002528
313.15	.004931	.00024655

System: ethanol + cefoperazone; phases: Liquid, Crystal
Fixed: Pressure, kPa = 101
Property: Mole fraction of cefoperazone (Liquid); method: Gravimetric Method
Temperature, K	Mole fraction of cefoperazone	uncertainty
278.15	.00001665	.000000008325
283.15	.00002028	.00000001014
288.15	.00002546	.00000001273
293.15	.00003112	.00000001556
298.15	.00003721	.000000018605
303.15	.00004568	.00000002284
308.15	.00005734	.00000002867
313.15	.00007491	.000000037455

System: 2-propanol + cefoperazone; phases: Liquid, Crystal
Fixed: Pressure, kPa = 101
Property: Mole fraction of cefoperazone (Liquid); method: Gravimetric Method
Temperature, K	Mole fraction of cefoperazone	uncertainty
278.15	.00003226	.000001613
283.15	.00004246	.000002123
288.15	.00005588	.000002794
293.15	.00007073	.0000035365
298.15	.00008566	.000004283
303.15	.0001088	.00000544
308.15	.0001523	.000007615
313.15	.0002	.00001

System: water + cefoperazone; phases: Liquid, Crystal
Fixed: Pressure, kPa = 101
Property: Mole fraction of cefoperazone (Liquid); method: Gravimetric Method
Temperature, K	Mole fraction of cefoperazone	uncertainty
278.15	.00000745	.0000003725
283.15	.00000833	.0000004165
288.15	.00001092	.000000546
293.15	.00001264	.000000632
298.15	.0000151	.000000755
303.15	.00001845	.0000009225
308.15	.00002223	.0000011115
313.15	.00002509	.0000012545

System: acetone + water + cefoperazone; phases: Liquid, Crystal
Fixed: Pressure, kPa = 101
Property: Mole fraction of cefoperazone (Liquid); method: Gravimetric
Temperature, K	Mole fraction of water	Mole fraction of cefoperazone	uncertainty
278.15	0	.00632	.000316
278.15	.076	.0171	.000855
278.15	.145	.02984	.001492
278.15	.264	.0406	.00203
278.15	.353	.0433	.002165
278.15	.446	.02867	.0014335
278.15	.58	.02037	.0010185
278.15	.682	.008069	.00040345
278.15	.829	.0005766	.00002883
278.15	.928	.00002201	.0000011005
278.15	1	.00000745	.0000003725
283.15	0	.005876	.0002938
283.15	.076	.0159	.000795
283.15	.145	.02837	.0014185
283.15	.264	.03918	.001959
283.15	.353	.04118	.002059
283.15	.446	.02879	.0014395
283.15	.58	.0208	.00104
283.15	.682	.008639	.00043195
283.15	.829	.0006856	.00003428
283.15	.928	.00002784	.000001392
283.15	1	.00000833	.0000004165
288.15	0	.005619	.00028095
288.15	.076	.01502	.000751
288.15	.145	.02645	.0013225
288.15	.264	.0379	.001895
288.15	.353	.03869	.0019345
288.15	.446	.0292	.00146
288.15	.58	.02102	.001051
288.15	.682	.009294	.0004647
288.15	.829	.0008682	.00004341
288.15	.928	.00004856	.000002428
288.15	1	.00001092	.000000546
293.15	0	.005433	.00027165
293.15	.076	.01463	.0007315
293.15	.145	.02487	.0012435
293.15	.264	.03617	.0018085
293.15	.353	.03689	.0018445
293.15	.446	.02965	.0014825
293.15	.58	.02133	.0010665
293.15	.682	.01013	.0005065
293.15	.829	.001075	.00005375
293.15	.928	.00006474	.000003237
293.15	1	.00001264	.000000632
298.15	0	.005262	.0002631
298.15	.076	.01425	.0007125
298.15	.145	.02371	.0011855
298.15	.264	.0348	.00174
298.15	.353	.03526	.001763
298.15	.446	.03017	.0015085
298.15	.58	.02165	.0010825
298.15	.682	.01105	.0005525
298.15	.829	.001296	.0000648
298.15	.928	.00009614	.000004807
298.15	1	.0000151	.000000755
303.15	0	.005135	.00025675
303.15	.076	.01375	.0006875
303.15	.145	.02255	.0011275
303.15	.264	.03343	.0016715
303.15	.353	.03445	.0017225
303.15	.446	.03072	.001536
303.15	.58	.02187	.0010935
303.15	.682	.01229	.0006145
303.15	.829	.001587	.00007935
303.15	.928	.0001271	.000006355
303.15	1	.00001845	.0000009225
308.15	0	.005056	.0002528
308.15	.076	.01316	.000658
308.15	.145	.02178	.001089
308.15	.264	.03305	.0016525
308.15	.353	.0326	.00163
308.15	.446	.03148	.001574
308.15	.58	.0222	.00111
308.15	.682	.01361	.0006805
308.15	.829	.001913	.00009565
308.15	.928	.0001526	.00000763
308.15	1	.00002223	.0000011115
313.15	0	.004931	.00024655
313.15	.076	.01281	.0006405
313.15	.145	.02084	.001042
313.15	.264	.03123	.0015615
313.15	.353	.03141	.0015705
313.15	.446	.032	.0016
313.15	.58	.02256	.001128
313.15	.682	.01586	.000793
313.15	.829	.002254	.0001127
313.15	.928	.0001834	.00000917
313.15	1	.00002509	.0000012545
