Measured thermophysical data. Separation of 1,3-dioxolane from its azeotropic aqueous solution by using Good's buffer ionic liquid [TMA][EPPS]
Source: Fluid Phase Equilib., 2016, 10.1016/j.fluid.2015.10.033
Compound 1: 1,3-dioxolane, C3H6O2, purity 99.5%
Compound 2: tetramethylammonium 3-(4-(2-hydroxyethyl)piperazin-1-yl)propane-1-sulfonate, C13H31N3O4S
Compound 3: water, H2O, purity 99.9%

System: tetramethylammonium 3-(4-(2-hydroxyethyl)piperazin-1-yl)propane-1-sulfonate + 1,3-dioxolane + water; phases: Liquid mixture 2, Liquid mixture 1
Property: Mass fraction of water (Liquid mixture 2); method: Chromatography
Property: Mass fraction of 1,3-dioxolane (Liquid mixture 1); method: Chromatography
Property: Mass fraction of water (Liquid mixture 1); method: Chromatography
Temperature, K	Pressure, kPa	Mass fraction of 1,3-dioxolane	Mass fraction of water	uncertainty	Mass fraction of 1,3-dioxolane	uncertainty	Mass fraction of water	uncertainty
298.15	101.3	.3813	.4516	.004516	.8862	.008862	.1109	.001109
298.15	101.3	.2823	.4686	.004686	.9161	.009161	.0823	.000823
298.15	101.3	.2462	.4599	.004599	.93	.0093	.0689	.000689
298.15	101.3	.1552	.4217	.004217	.9552	.009552	.0441	.000441
298.15	101.3	.1526	.3702	.003702	.9626	.009626	.0369	.000369
298.15	101.3	.1319	.3509	.003509	.9715	.009715	.0285	.000285
