Measured thermophysical data. Investigation on vapor liquid equilibrium for 2-propanol + 1-butanol + 1-pentanol at 101.3 kPa
Source: Fluid Phase Equilib., 2013, 10.1016/j.fluid.2012.12.020
Compound 1: methyl alcohol, CH4O, purity 99.5%
Compound 2: pentyl alcohol, C5H12O, purity 99.6%
Compound 3: isopropanol, C3H8O, purity 99.7%
Compound 4: n-butanol, C4H10O, purity 99.6%

System: methyl alcohol; phases: Liquid
Fixed: Pressure, kPa = 101.325
Property: Refractive index (Na D-line) (Liquid); method: Standard Abbe refractometry
Temperature, K	Refractive index (Na D-line)	uncertainty
298.15	1.3288	

System: methyl alcohol; phases: Liquid, Gas
Property: Normal boiling temperature, K (Liquid); method: Distillation
Normal boiling temperature, K	uncertainty
337.69	.1

System: pentyl alcohol; phases: Liquid
Fixed: Pressure, kPa = 101.325
Property: Refractive index (Na D-line) (Liquid); method: Standard Abbe refractometry
Temperature, K	Refractive index (Na D-line)	uncertainty
298.15	1.4097	

System: pentyl alcohol; phases: Liquid, Gas
Property: Normal boiling temperature, K (Liquid); method: Distillation
Normal boiling temperature, K	uncertainty
411.1	.1

System: isopropanol; phases: Liquid
Fixed: Pressure, kPa = 101.325
Property: Refractive index (Na D-line) (Liquid); method: Standard Abbe refractometry
Temperature, K	Refractive index (Na D-line)	uncertainty
298.15	1.3776	

System: isopropanol; phases: Liquid, Gas
Property: Normal boiling temperature, K (Liquid); method: Distillation
Normal boiling temperature, K	uncertainty
355.5	.1

System: n-butanol; phases: Liquid
Fixed: Pressure, kPa = 101.325
Property: Refractive index (Na D-line) (Liquid); method: Standard Abbe refractometry
Temperature, K	Refractive index (Na D-line)	uncertainty
298.15	1.3995	

System: n-butanol; phases: Liquid, Gas
Property: Normal boiling temperature, K (Liquid); method: Distillation
Normal boiling temperature, K	uncertainty
390.86	.1

System: isopropanol + n-butanol; phases: Gas, Liquid
Property: Mole fraction of isopropanol (Gas); method: Chromatography
Mole fraction of isopropanol	Pressure, kPa	Mole fraction of isopropanol	uncertainty
0	101.325	0	.001
.0227	101.325	.0672	.001
.0474	101.325	.1362	.001
.0744	101.325	.2067	.001
.1062	101.325	.2825	.001
.1299	101.325	.3357	.001
.1465	101.325	.375	.001
.2023	101.325	.4759	.001
.2693	101.325	.5731	.001
.317	101.325	.6373	.001
.3255	101.325	.648	.001
.4002	101.325	.7221	.001
.4471	101.325	.7615	.001
.4938	101.325	.7954	.001
.5341	101.325	.8218	.001
.584	101.325	.8526	.001
.6307	101.325	.8768	.001
.6836	101.325	.9015	.001
.7333	101.325	.9221	.001
.7957	101.325	.9448	.001
.9052	101.325	.9775	.001
1	101.325	1	.001

System: isopropanol + n-butanol; phases: Liquid, Gas
Property: Boiling temperature at pressure P, K (Liquid); method: Ebulliometric method (Recirculating still)
Mole fraction of isopropanol	Pressure, kPa	Boiling temperature at pressure P, K	uncertainty
0	101.325	390.86	.1
.0227	101.325	389.12	.1
.0474	101.325	387.53	.1
.0744	101.325	385.95	.1
.1062	101.325	384.15	.1
.1299	101.325	382.96	.1
.1465	101.325	381.8	.1
.2023	101.325	379	.1
.2693	101.325	376.05	.1
.317	101.325	374	.1
.3255	101.325	373.65	.1
.4002	101.325	370.75	.1
.4471	101.325	369.13	.1
.4938	101.325	367.77	.1
.5341	101.325	366.51	.1
.584	101.325	364.99	.1
.6307	101.325	363.6	.1
.6836	101.325	362.17	.1
.7333	101.325	360.67	.1
.7957	101.325	359.27	.1
.9052	101.325	357.16	.1
1	101.325	355.5	.1

System: isopropanol + pentyl alcohol; phases: Gas, Liquid
Property: Mole fraction of isopropanol (Gas); method: Chromatography
Mole fraction of isopropanol	Pressure, kPa	Mole fraction of isopropanol	uncertainty
0	101.325	0	.001
.0156	101.325	.0741	.001
.0315	101.325	.1499	.001
.0495	101.325	.2355	.001
.0682	101.325	.2973	.001
.3302	101.325	.7905	.001
.3494	101.325	.8072	.001
.3956	101.325	.8405	.001
.4364	101.325	.8644	.001
.4821	101.325	.8861	.001
.0854	101.325	.3565	.001
.1016	101.325	.4056	.001
.125	101.325	.4684	.001
.1615	101.325	.5509	.001
.1895	101.325	.6088	.001
.2141	101.325	.6498	.001
.2579	101.325	.7155	.001
.2794	101.325	.7398	.001
.5105	101.325	.899	.001
.5908	101.325	.9275	.001
.628	101.325	.9385	.001
.7059	101.325	.9573	.001
.7645	101.325	.9685	.001
.8324	101.325	.9798	.001
.9032	101.325	.9895	.001
1	101.325	1	.001

System: isopropanol + pentyl alcohol; phases: Liquid, Gas
Property: Boiling temperature at pressure P, K (Liquid); method: Ebulliometric method (Recirculating still)
Mole fraction of isopropanol	Pressure, kPa	Boiling temperature at pressure P, K	uncertainty
0	101.325	411.1	.1
.0156	101.325	408.68	.1
.0315	101.325	406.51	.1
.0495	101.325	404.91	.1
.0682	101.325	402.1	.1
.3302	101.325	380.36	.1
.3494	101.325	379.45	.1
.3956	101.325	377	.1
.4364	101.325	374.75	.1
.4821	101.325	372.45	.1
.0854	101.325	400.42	.1
.1016	101.325	398.32	.1
.125	101.325	395.97	.1
.1615	101.325	392.48	.1
.1895	101.325	390.25	.1
.2141	101.325	388.14	.1
.2579	101.325	385	.1
.2794	101.325	383.55	.1
.5105	101.325	371.03	.1
.5908	101.325	367.88	.1
.628	101.325	366.57	.1
.7059	101.325	363.69	.1
.7645	101.325	361.67	.1
.8324	101.325	359.47	.1
.9032	101.325	357.45	.1
1	101.325	355.5	.1

System: n-butanol + pentyl alcohol; phases: Gas, Liquid
Property: Mole fraction of n-butanol (Gas); method: Chromatography
Mole fraction of n-butanol	Pressure, kPa	Mole fraction of n-butanol	uncertainty
0	101.325	0	.001
.044	101.325	.0741	.001
.0537	101.325	.09	.001
.1046	101.325	.1725	.001
.1383	101.325	.2245	.001
.1906	101.325	.3065	.001
.2408	101.325	.3763	.001
.2936	101.325	.4378	.001
.3394	101.325	.495	.001
.3833	101.325	.5366	.001
.4308	101.325	.5875	.001
.4836	101.325	.6405	.001
.5369	101.325	.6895	.001
.5796	101.325	.7297	.001
.6488	101.325	.792	.001
.6913	101.325	.825	.001
.7336	101.325	.8604	.001
.8022	101.325	.8997	.001
.8579	101.325	.929	.001
.9115	101.325	.9599	.001
1	101.325	1	.001

System: n-butanol + pentyl alcohol; phases: Liquid, Gas
Property: Boiling temperature at pressure P, K (Liquid); method: Ebulliometric method (Recirculating still)
Mole fraction of n-butanol	Pressure, kPa	Boiling temperature at pressure P, K	uncertainty
0	101.325	411.1	.1
.044	101.325	410	.1
.0537	101.325	409.7	.1
.1046	101.325	408	.1
.1383	101.325	407.5	.1
.1906	101.325	406.04	.1
.2408	101.325	404.96	.1
.2936	101.325	404.31	.1
.3394	101.325	403.2	.1
.3833	101.325	401.74	.1
.4308	101.325	400.9	.1
.4836	101.325	400.17	.1
.5369	101.325	398.6	.1
.5796	101.325	397.88	.1
.6488	101.325	396.57	.1
.6913	101.325	395.93	.1
.7336	101.325	395.13	.1
.8022	101.325	393.83	.1
.8579	101.325	393.13	.1
.9115	101.325	392.02	.1
1	101.325	390.86	.1

System: isopropanol + n-butanol + pentyl alcohol; phases: Liquid, Gas
Property: Mole fraction of isopropanol (Liquid); method: Chromatography
Property: Mole fraction of isopropanol (Gas); method: Chromatography
Property: Mole fraction of n-butanol (Gas); method: Chromatography
Temperature, K	Pressure, kPa	Mole fraction of n-butanol	Mole fraction of isopropanol	uncertainty	Mole fraction of isopropanol	uncertainty	Mole fraction of n-butanol	uncertainty
375.71	101.325	.6489	.3031	.001	.5264	.001	.3045	.001
391.37	101.325	.3818	.1068	.001	.3002	.001	.3132	.001
395.79	101.325	.1755	.0428	.001	.398	.001	.4846	.001
397.46	101.325	.1599	.0373	.001	.3404	.001	.4378	.001
399.49	101.325	.1285	.0281	.001	.2881	.001	.3973	.001
401.17	101.325	.1036	.0216	.001	.2429	.001	.3547	.001
403.04	101.325	.0759	.0151	.001	.1974	.001	.306	.001
378.07	101.325	.6172	.2648	.001	.4775	.001	.3047	.001
381.3	101.325	.5675	.2184	.001	.4341	.001	.3125	.001
383.3	101.325	.5321	.1911	.001	.4084	.001	.3174	.001
385.91	101.325	.4855	.1595	.001	.3722	.001	.3189	.001
388.36	101.325	.4399	.1341	.001	.3396	.001	.3179	.001
