Measured thermophysical data. Liquid-liquid equilibrium in binary systems of isomeric C8 aliphatic monoethers with nitromethane
Source: Fluid Phase Equilib., 2013, 10.1016/j.fluid.2013.07.002
Compound 1: dibutyl ether, C8H18O, purity 99%
Compound 2: heptyl methyl ether, C8H18O
Compound 3: ethyl hexyl ether, C8H18O
Compound 4: pentyl propyl ether, C8H18O
Compound 5: nitromethane, CH3NO2, purity 98%
Compound 6: n-heptane, C7H16, purity 99%
Compound 7: 1-octadecanol, C18H38O

System: 1-octadecanol; phases: Crystal, Liquid, Air at 1 atmosphere
Property: Normal melting temperature, K (Crystal); method: Visual observation
Normal melting temperature, K	uncertainty
331	.05

System: 1-octadecanol + n-heptane; phases: Liquid mixture 1, Liquid mixture 2
Fixed: Pressure, kPa = 101
Property: Mole fraction of 1-octadecanol (Liquid mixture 1); method: synthetic method or a cloud-point technique
Temperature, K	Mole fraction of 1-octadecanol	uncertainty
310.07	.07169	.00004
311.59	.10048	.00006
313.66	.15495	.00009
314.65	.18351	.00011
316.1	.22666	.00014
317.22	.26609	.00018
318.58	.31721	.00023
320.28	.3853	.0003
321.62	.4443	.0004
323.5	.5355	.0006
327.86	.776	.0009

System: nitromethane + dibutyl ether; phases: Liquid mixture 1, Liquid mixture 2
Fixed: Pressure, kPa = 101
Property: Mole fraction of nitromethane (Liquid mixture 1); method: synthetic method or a cloud-point technique
Temperature, K	Mole fraction of nitromethane	uncertainty
279.36	.2957	.0004
284.38	.3188	.0005
285.24	.32383	.00025
289.71	.3568	.0003
293.47	.3899	.0003
296.69	.422	.0003
299.58	.4575	.0003
302.58	.5007	.0003
304.95	.5458	.0003
306.23	.58355	.00023
307.09	.61602	.00025
307.74	.65529	.00024
307.99	.69984	.00022
308	.7502	.00018
307.78	.79252	.00014
306.45	.83783	.00011
303.6	.87091	.00011
303.74	.87151	.00008
301.25	.88754	.0001
299.13	.89939	.00009
296.63	.91168	.00018
294.57	.92003	.00008
290.01	.9327	.00007
285.89	.94194	.00006
279.92	.95222	.00005

System: nitromethane + heptyl methyl ether; phases: Liquid mixture 1, Liquid mixture 2
Fixed: Pressure, kPa = 101
Property: Mole fraction of nitromethane (Liquid mixture 1); method: synthetic method or a cloud-point technique
Temperature, K	Mole fraction of nitromethane	uncertainty
256.82	.42461	.00018
258.55	.43981	.00017
261.09	.4657	.00021
263.2	.48753	.00024
265.57	.51701	.00024
267.44	.54257	.00024
269.09	.5701	.00023
270.51	.59956	.00022
271.85	.63502	.0002
272.58	.66134	.00018
273.06	.68824	.00016
273.4	.71988	.00014
273.45	.74458	.00018
273.55	.77844	.00017
273.59	.82002	.00014
272.81	.8567	.0001
270.84	.89005	.00008
268.37	.90998	.00006
265.22	.9251	.00006
262.93	.93336	.00005
260.18	.94195	.00004
257.6	.94794	.00004

System: nitromethane + ethyl hexyl ether; phases: Liquid mixture 1, Liquid mixture 2
Fixed: Pressure, kPa = 101
Property: Mole fraction of nitromethane (Liquid mixture 1); method: synthetic method or a cloud-point technique
Temperature, K	Mole fraction of nitromethane	uncertainty
263.05	.3113	.0003
268.7	.3484	.0004
272.88	.3742	.0005
278.04	.4194	.0005
281.72	.45952	.00015
283.91	.48573	.00015
287.12	.53343	.00017
289.13	.57318	.00019
290.47	.61321	.00018
291.33	.65296	.00017
291.82	.69793	.00015
291.84	.74906	.00012
291.68	.80076	.00009
290.52	.848	.00006
288.46	.87865	.00006
286.63	.89311	.00006
284.28	.90644	.00005
281.74	.91772	.00018
278.25	.92934	.00016
275.17	.93788	.00013
268.63	.95113	.00009

System: nitromethane + pentyl propyl ether; phases: Liquid mixture 1, Liquid mixture 2
Fixed: Pressure, kPa = 101
Property: Mole fraction of nitromethane (Liquid mixture 1); method: synthetic method or a cloud-point technique
Temperature, K	Mole fraction of nitromethane	uncertainty
275.54	.27835	.00014
279.29	.30032	.00015
281.78	.31648	.00015
285.5	.34196	.00016
289.1	.37093	.00017
291.64	.39325	.00018
294.65	.42291	.00018
297.68	.4589	.00019
300.35	.49686	.00019
303.09	.54482	.00016
304.5	.58158	.00014
305.48	.61759	.00015
306.1	.65535	.00015
306.39	.7007	.00013
306.44	.74964	.00011
306.14	.80035	.00008
304.9	.83961	.00006
302.56	.87061	.00005
299.92	.89059	.00004
298.06	.90099	.00009
295.27	.9132	.00008
291.72	.92479	.00007
287.54	.9359	.00006
282.11	.94698	.00005
278.02	.95358	.00004
