Measured thermophysical data. Abraham model linear free energy relationships for describing the partitioning and solubility behavior of nonelectrolyte organic solutes dissolved in pyridine at 298.15 K
Source: Fluid Phase Equilib., 2017, 10.1016/j.fluid.2016.10.009
Compound 1: pyridine, C5H5N, purity 99.5%
Compound 2: n-heptane, C7H16, purity 99%
Compound 3: n-octane, C8H18, purity 99%
Compound 4: n-nonane, C9H20, purity 99%
Compound 5: n-decane, C10H22, purity 99%
Compound 6: n-undecane, C11H24, purity 99%
Compound 7: 1-heptene, C7H14, purity 98%
Compound 8: cyclohexene, C6H10, purity 99%
Compound 9: 1-heptyne, C7H12, purity 99%
Compound 10: ethylbenzene, C8H10, purity 99%
Compound 11: o-xylene, C8H10, purity 99%
Compound 12: m-xylene, C8H10, purity 99%
Compound 13: p-xylene, C8H10, purity 99%
Compound 14: acetonitrile, C2H3N, purity 99.9%
Compound 15: butyl acetate, C6H12O2, purity 99.5%
Compound 16: 1-chlorobutane, C4H9Cl, purity 99.5%
Compound 17: 2-bromopropane, C3H7Br, purity 99%
Compound 18: 1,2-dichloropropane, C3H6Cl2, purity 98.5%
Compound 19: acetone, C3H6O, purity 99.9%
Compound 20: pentyl acetate, C7H14O2, purity 99%
Compound 21: tetrahydrofuran, C4H8O, purity 99.5%

System: n-heptane + pyridine; phases: Liquid
Fixed: Mole fraction of n-heptane = 0
Fixed: Pressure, kPa = 101.325
Property: Activity coefficient of n-heptane (Liquid); method: Other
Temperature, K	Activity coefficient of n-heptane	uncertainty
298.15	6.78	

System: n-octane + pyridine; phases: Liquid
Fixed: Mole fraction of n-octane = 0
Fixed: Pressure, kPa = 101
Property: Activity coefficient of n-octane (Liquid); method: Other
Temperature, K	Activity coefficient of n-octane	uncertainty
298.15	7.93	

System: n-nonane + pyridine; phases: Liquid
Fixed: Mole fraction of n-nonane = 0
Fixed: Pressure, kPa = 101
Property: Activity coefficient of n-nonane (Liquid); method: Other
Temperature, K	Activity coefficient of n-nonane	uncertainty
298.15	8.75	

System: n-decane + pyridine; phases: Liquid
Fixed: Mole fraction of n-decane = 0
Fixed: Pressure, kPa = 101
Property: Activity coefficient of n-decane (Liquid); method: Other
Temperature, K	Activity coefficient of n-decane	uncertainty
298.15	9.6	

System: n-undecane + pyridine; phases: Liquid
Fixed: Mole fraction of n-undecane = 0
Fixed: Pressure, kPa = 101
Property: Activity coefficient of n-undecane (Liquid); method: Other
Temperature, K	Activity coefficient of n-undecane	uncertainty
298.15	10.2	

System: 1-heptene + pyridine; phases: Liquid
Fixed: Mole fraction of 1-heptene = 0
Fixed: Pressure, kPa = 101
Property: Activity coefficient of 1-heptene (Liquid); method: Other
Temperature, K	Activity coefficient of 1-heptene	uncertainty
298.15	3.57	

System: 1-heptyne + pyridine; phases: Liquid
Fixed: Mole fraction of 1-heptyne = 0
Fixed: Pressure, kPa = 101
Property: Activity coefficient of 1-heptyne (Liquid); method: Other
Temperature, K	Activity coefficient of 1-heptyne	uncertainty
298.15	1.55	

System: ethylbenzene + pyridine; phases: Liquid
Fixed: Mole fraction of ethylbenzene = 0
Fixed: Pressure, kPa = 101
Property: Activity coefficient of ethylbenzene (Liquid); method: Other
Temperature, K	Activity coefficient of ethylbenzene	uncertainty
298.15	1.44	

System: o-xylene + pyridine; phases: Liquid
Fixed: Mole fraction of o-xylene = 0
Fixed: Pressure, kPa = 101
Property: Activity coefficient of o-xylene (Liquid); method: Other
Temperature, K	Activity coefficient of o-xylene	uncertainty
298.15	1.41	

System: m-xylene + pyridine; phases: Liquid
Fixed: Mole fraction of m-xylene = 0
Fixed: Pressure, kPa = 101
Property: Activity coefficient of m-xylene (Liquid); method: Other
Temperature, K	Activity coefficient of m-xylene	uncertainty
298.15	1.54	

System: p-xylene + pyridine; phases: Liquid
Fixed: Mole fraction of p-xylene = 0
Fixed: Pressure, kPa = 101
Property: Activity coefficient of p-xylene (Liquid); method: Other
Temperature, K	Activity coefficient of p-xylene	uncertainty
298.15	1.56	

System: acetonitrile + pyridine; phases: Liquid
Fixed: Mole fraction of acetonitrile = 0
Fixed: Pressure, kPa = 101
Property: Activity coefficient of acetonitrile (Liquid); method: Other
Temperature, K	Activity coefficient of acetonitrile	uncertainty
298.15	1.46	

System: butyl acetate + pyridine; phases: Liquid
Fixed: Mole fraction of butyl acetate = 0
Fixed: Pressure, kPa = 101
Property: Activity coefficient of butyl acetate (Liquid); method: Other
Temperature, K	Activity coefficient of butyl acetate	uncertainty
298.15	1.15	

System: 1-chlorobutane + pyridine; phases: Liquid
Fixed: Mole fraction of 1-chlorobutane = 0
Fixed: Pressure, kPa = 101
Property: Activity coefficient of 1-chlorobutane (Liquid); method: Other
Temperature, K	Activity coefficient of 1-chlorobutane	uncertainty
298.15	1.54	

System: 1,2-dichloropropane + pyridine; phases: Liquid
Fixed: Mole fraction of 1,2-dichloropropane = 0
Fixed: Pressure, kPa = 101
Property: Activity coefficient of 1,2-dichloropropane (Liquid); method: Other
Temperature, K	Activity coefficient of 1,2-dichloropropane	uncertainty
298.15	.93	

System: 2-bromopropane + pyridine; phases: Liquid
Fixed: Mole fraction of 2-bromopropane = 0
Fixed: Pressure, kPa = 101
Property: Activity coefficient of 2-bromopropane (Liquid); method: Other
Temperature, K	Activity coefficient of 2-bromopropane	uncertainty
298.15	1.35	

System: tetrahydrofuran + pyridine; phases: Liquid
Fixed: Mole fraction of tetrahydrofuran = 0
Fixed: Pressure, kPa = 101
Property: Activity coefficient of tetrahydrofuran (Liquid); method: Other
Temperature, K	Activity coefficient of tetrahydrofuran	uncertainty
298.15	.93	

System: acetone + pyridine; phases: Liquid
Fixed: Mole fraction of acetone = 0
Fixed: Pressure, kPa = 101
Property: Activity coefficient of acetone (Liquid); method: Other
Temperature, K	Activity coefficient of acetone	uncertainty
298.15	1.18	

System: pentyl acetate + pyridine; phases: Liquid
Fixed: Mole fraction of pentyl acetate = 0
Fixed: Pressure, kPa = 101
Property: Activity coefficient of pentyl acetate (Liquid); method: Other
Temperature, K	Activity coefficient of pentyl acetate	uncertainty
298.15	1.12	

System: cyclohexene + pyridine; phases: Liquid
Fixed: Mole fraction of cyclohexene = 0
Fixed: Pressure, kPa = 101
Property: Activity coefficient of cyclohexene (Liquid); method: Other
Temperature, K	Activity coefficient of cyclohexene	uncertainty
298.15	2.48	
