Measured thermophysical data. Liquid-liquid equilibria for ternary systems of {cyclohexane + aromatic compounds + 1-ethyl-3-methylpyridinium ethylsulfate}
Source: Fluid Phase Equilib., 2010, 10.1016/j.fluid.2010.05.009
Compound 1: cyclohexane, C6H12
Compound 2: benzene, C6H6
Compound 3: toluene, C7H8
Compound 4: ethylbenzene, C8H10
Compound 5: 1-ethyl-3-methylpyridinium ethylsulfate, C10H17NO4S

System: 1-ethyl-3-methylpyridinium ethylsulfate; phases: Liquid
Fixed: Pressure, kPa = 101.325
Property: Mass density, kg/m3 (Liquid); method: Vibrating tube method
Temperature, K	Mass density, kg/m3	uncertainty
298.15	1219.61	.05

System: 1-ethyl-3-methylpyridinium ethylsulfate; phases: Liquid
Fixed: Pressure, kPa = 101.325
Property: Refractive index (Na D-line) (Liquid); method: Standard Abbe refractometry
Temperature, K	Refractive index (Na D-line)	uncertainty
298.15	1.50591	.00008

System: benzene + cyclohexane + 1-ethyl-3-methylpyridinium ethylsulfate; phases: Liquid mixture 1, Liquid mixture 2
Fixed: Pressure, kPa = 101.3
Fixed: Temperature, K = 298.15
Property: Mole fraction of benzene (Liquid mixture 1); method: Density calibration data
Mole fraction of cyclohexane	Mole fraction of benzene	uncertainty
.023	0	.005
.026	.051	.005
.016	.095	.005
.021	.148	.005
.017	.188	.005
.016	.29	.005
.011	.393	.005
.013	.442	.005
0	.591	.005
.027	.076	.005
.017	.21	.005
.003	.539	.005

System: benzene + cyclohexane + 1-ethyl-3-methylpyridinium ethylsulfate; phases: Liquid
Fixed: Temperature, K = 298.15
Fixed: Pressure, kPa = 101.325
Property: Mass density, kg/m3 (Liquid); method: Vibrating tube method
Mole fraction of cyclohexane	Mole fraction of benzene	Mass density, kg/m3	uncertainty
.023	0	1215.7	.05
.026	.051	1209.07	.05
.016	.095	1203.34	.05
.021	.148	1195.87	.05
.017	.188	1189.09	.05
.016	.29	1171.41	.05
.011	.393	1151.09	.05
.013	.442	1140.68	.05
0	.591	1104.84	.05
.027	.076	1205.46	.05
.017	.21	1186.1	.05
.003	.539	1116.54	.05

System: benzene + cyclohexane + 1-ethyl-3-methylpyridinium ethylsulfate; phases: Liquid mixture 1, Liquid mixture 2
Fixed: Temperature, K = 298.15
Fixed: Pressure, kPa = 101.3
Property: Mole fraction of cyclohexane (Liquid mixture 1); method: Density calibration data
Property: Mole fraction of benzene (Liquid mixture 2); method: Density calibration data
Property: Mole fraction of cyclohexane (Liquid mixture 2); method: Density calibration data
Mole fraction of benzene	Mole fraction of cyclohexane	uncertainty	Mole fraction of benzene	uncertainty	Mole fraction of cyclohexane	uncertainty
.11	.89	.005	.07	.005	.021	.005
.166	.834	.005	.109	.005	.021	.005
.221	.779	.005	.144	.005	.021	.005
.276	.724	.005	.176	.005	.02	.005
.333	.667	.005	.207	.005	.019	.005
.442	.558	.005	.269	.005	.017	.005
.565	.435	.005	.326	.005	.015	.005
.701	.299	.005	.388	.005	.012	.005
.84	.16	.005	.453	.005	.009	.005

System: toluene + cyclohexane + 1-ethyl-3-methylpyridinium ethylsulfate; phases: Liquid mixture 1, Liquid mixture 2
Fixed: Pressure, kPa = 101.3
Fixed: Temperature, K = 298.15
Property: Mole fraction of toluene (Liquid mixture 1); method: Density calibration data
Mole fraction of cyclohexane	Mole fraction of toluene	uncertainty
.023	0	.005
.023	.079	.005
.023	.115	.005
.022	.151	.005
.021	.171	.005
.014	.218	.005
.01	.243	.005
.01	.269	.005
0	.307	.005
.025	.077	.005
.012	.216	.005
.008	.248	.005

System: toluene + cyclohexane + 1-ethyl-3-methylpyridinium ethylsulfate; phases: Liquid
Fixed: Temperature, K = 298.15
Fixed: Pressure, kPa = 101.325
Property: Mass density, kg/m3 (Liquid); method: Vibrating tube method
Mole fraction of cyclohexane	Mole fraction of toluene	Mass density, kg/m3	uncertainty
.023	0	1215.7	.05
.023	.079	1201.37	.05
.023	.115	1195.69	.05
.022	.151	1189.86	.05
.021	.171	1185.64	.05
.014	.218	1177.51	.05
.01	.243	1173.22	.05
.01	.269	1167.38	.05
0	.307	1161.68	.05
.025	.077	1201.97	.05
.012	.216	1178.05	.05
.008	.248	1173.09	.05

System: toluene + cyclohexane + 1-ethyl-3-methylpyridinium ethylsulfate; phases: Liquid mixture 1, Liquid mixture 2
Fixed: Temperature, K = 298.15
Fixed: Pressure, kPa = 101.3
Property: Mole fraction of toluene (Liquid mixture 1); method: Density calibration data
Property: Mole fraction of cyclohexane (Liquid mixture 2); method: Density calibration data
Property: Mole fraction of toluene (Liquid mixture 2); method: Density calibration data
Mole fraction of cyclohexane	Mole fraction of toluene	uncertainty	Mole fraction of cyclohexane	uncertainty	Mole fraction of toluene	uncertainty
.878	.122	.005	.031	.005	.032	.005
.817	.183	.005	.05	.005	.053	.005
.76	.24	.005	.066	.005	.075	.005
.635	.365	.005	.104	.005	.094	.005
.507	.493	.005	.14	.005	.118	.005
.379	.621	.005	.176	.005	.163	.005
.253	.747	.005	.217	.005	.202	.005
.123	.877	.005	.261	.005	.244	.005
.041	.959	.005	.294	.005	.243	.005

System: ethylbenzene + cyclohexane + 1-ethyl-3-methylpyridinium ethylsulfate; phases: Liquid mixture 1, Liquid mixture 2
Fixed: Pressure, kPa = 101.3
Fixed: Temperature, K = 298.15
Property: Mole fraction of ethylbenzene (Liquid mixture 1); method: Density calibration data
Mole fraction of cyclohexane	Mole fraction of ethylbenzene	uncertainty
.023	0	.005
.014	.047	.005
.011	.076	.005
.006	.088	.005
.005	.12	.005
0	.168	.005
.012	.051	.005
.006	.079	.005
.005	.12	.005

System: ethylbenzene + cyclohexane + 1-ethyl-3-methylpyridinium ethylsulfate; phases: Liquid
Fixed: Temperature, K = 298.15
Fixed: Pressure, kPa = 101.325
Property: Mass density, kg/m3 (Liquid); method: Vibrating tube method
Mole fraction of cyclohexane	Mole fraction of ethylbenzene	Mass density, kg/m3	uncertainty
.023	0	1215.7	.05
.014	.047	1208.71	.05
.011	.076	1203.38	.05
.006	.088	1202.01	.05
.005	.12	1195.67	.05
0	.168	1185.88	.05
.012	.051	1208.61	.05
.006	.079	1204.27	.05
.005	.12	1196.17	.05

System: ethylbenzene + cyclohexane + 1-ethyl-3-methylpyridinium ethylsulfate; phases: Liquid mixture 1, Liquid mixture 2
Fixed: Temperature, K = 298.15
Fixed: Pressure, kPa = 101.3
Property: Mole fraction of cyclohexane (Liquid mixture 1); method: Density calibration data
Property: Mole fraction of ethylbenzene (Liquid mixture 2); method: Density calibration data
Property: Mole fraction of cyclohexane (Liquid mixture 2); method: Density calibration data
Mole fraction of ethylbenzene	Mole fraction of cyclohexane	uncertainty	Mole fraction of ethylbenzene	uncertainty	Mole fraction of cyclohexane	uncertainty
.129	.871	.005	.017	.005	.019	.005
.254	.746	.005	.042	.005	.015	.005
.383	.617	.005	.065	.005	.011	.005
.512	.488	.005	.091	.005	.008	.005
.64	.36	.005	.106	.005	.005	.005
.77	.23	.005	.127	.005	.003	.005
.899	.101	.005	.144	.005	.001	.005
.967	.033	.005	.156	.005	0	.005
