Measured thermophysical data. Isobaric VLE at 0.6 MPa for binary systems isobutyl acetate + ethanol, + 1-propanol or + 2-propanol
Source: Fluid Phase Equilib., 2012, 10.1016/j.fluid.2012.06.013
Compound 1: 2-methylpropyl ethanoate, C6H12O2, purity 99%
Compound 2: 1-propanol, C3H8O, purity 99.8%
Compound 3: 2-propanol, C3H8O, purity 99.8%
Compound 4: ethanol, C2H6O, purity 99.8%

System: 2-methylpropyl ethanoate; phases: Liquid, Gas
Property: Normal boiling temperature, K (Liquid); method: Ebulliometric method (Recirculating still)
Normal boiling temperature, K	uncertainty
389.44	.1

System: 2-methylpropyl ethanoate; phases: Liquid
Fixed: Pressure, kPa = 101.325
Property: Mass density, kg/m3 (Liquid); method: Vibrating tube method
Temperature, K	Mass density, kg/m3	uncertainty
298.15	866.2	.1

System: 2-methylpropyl ethanoate; phases: Liquid
Fixed: Pressure, kPa = 101.325
Property: Refractive index (Na D-line) (Liquid); method: Standard Abbe refractometry
Temperature, K	Refractive index (Na D-line)	uncertainty
298.15	1.3882	.0002

System: 2-methylpropyl ethanoate; phases: Liquid, Gas
Property: Vapor or sublimation pressure, kPa (Liquid); method: Ebulliometric method (Recirculating still)
Temperature, K	Vapor or sublimation pressure, kPa	uncertainty
461.03	600	2

System: 1-propanol; phases: Liquid, Gas
Property: Normal boiling temperature, K (Liquid); method: Ebulliometric method (Recirculating still)
Normal boiling temperature, K	uncertainty
370.44	.1

System: 1-propanol; phases: Liquid
Fixed: Pressure, kPa = 101.325
Property: Mass density, kg/m3 (Liquid); method: Vibrating tube method
Temperature, K	Mass density, kg/m3	uncertainty
298.15	799.6	.1

System: 1-propanol; phases: Liquid
Fixed: Pressure, kPa = 101.325
Property: Refractive index (Na D-line) (Liquid); method: Standard Abbe refractometry
Temperature, K	Refractive index (Na D-line)	uncertainty
298.15	1.3837	.0002

System: 1-propanol; phases: Liquid, Gas
Property: Vapor or sublimation pressure, kPa (Liquid); method: Closed cell (Static) method
Temperature, K	Vapor or sublimation pressure, kPa	uncertainty
313.98	8	2
325.46	14	2
331.28	18	2
335.02	22	2
339.49	28	2
343.81	34	2
347.33	40	2
351.55	48	2
353.46	52	2
356.16	58	2
359.07	66	2
361.64	72	2
363.69	78	2
366.43	88	2
367.86	92	2
372.66	110	2
374.63	118	2
376.34	126	2
378.84	138	2
380.75	148	2
382.61	158	2
384.08	166	2
385.46	174	2
386.6	182	2
387.29	186	2
389.05	198	2
390.26	206	2
391.39	214	2
393.67	230	2
398.52	260	2
406.65	340	2
410.69	382	2
414.02	420	2
417.3	460	2
418.84	475	2
421.54	512	2
423.55	545	2
427.98	612	2
430.49	655	2
432.23	685	2
434.42	722	2
436.33	755	2
439.88	825	2
441.78	865	2
443	890	2
444.97	935	2
448.1	1007	2
449.6	1043	2
452.29	1112	2
453.22	1135	2
454.7	1175	2
456	1210	2
457.19	1245	2
458.54	1282	2
459.71	1317	2
460.87	1352	2
461.97	1387	2
463.21	1425	2
464.18	1455	2
465.41	1495	2
466.65	1535	2
467.43	1562	2
468.64	1602	2
469.46	1630	2

System: 1-propanol; phases: Liquid, Gas
Property: Vapor or sublimation pressure, kPa (Liquid); method: Ebulliometric method (Recirculating still)
Temperature, K	Vapor or sublimation pressure, kPa	uncertainty
427.2	600	2

System: 2-propanol; phases: Liquid, Gas
Property: Normal boiling temperature, K (Liquid); method: Ebulliometric method (Recirculating still)
Normal boiling temperature, K	uncertainty
355.53	.1

System: 2-propanol; phases: Liquid
Fixed: Pressure, kPa = 101.325
Property: Mass density, kg/m3 (Liquid); method: Vibrating tube method
Temperature, K	Mass density, kg/m3	uncertainty
298.15	781.3	.1

System: 2-propanol; phases: Liquid
Fixed: Pressure, kPa = 101.325
Property: Refractive index (Na D-line) (Liquid); method: Standard Abbe refractometry
Temperature, K	Refractive index (Na D-line)	uncertainty
298.15	1.3751	.1

System: 2-propanol; phases: Liquid, Gas
Property: Vapor or sublimation pressure, kPa (Liquid); method: Ebulliometric method (Recirculating still)
Temperature, K	Vapor or sublimation pressure, kPa	uncertainty
410.08	600	2

System: ethanol; phases: Liquid
Property: Mass density, kg/m3 (Liquid); method: Vibrating tube method
Pressure, kPa	Temperature, K	Mass density, kg/m3	uncertainty
101	298.15	785.2	.1

System: ethanol; phases: Liquid, Gas
Property: Vapor or sublimation pressure, kPa (Liquid); method: Ebulliometric method (Recirculating still)
Temperature, K	Vapor or sublimation pressure, kPa	uncertainty
405.53	600	2

System: ethanol + 2-methylpropyl ethanoate; phases: Liquid
Fixed: Pressure, kPa = 101
Fixed: Temperature, K = 298.15
Property: Mass density, kg/m3 (Liquid); method: Vibrating tube method
Mole fraction of 2-methylpropyl ethanoate	Mass density, kg/m3	uncertainty
0	785.2	.1
.09	799.8	.1
.153	808.3	.1
.22	816.2	.1
.277	822.2	.1
.349	828.9	.1
.44	836.3	.1
.563	844.8	.1
.657	850.4	.1
.742	854.9	.1
.85	860	.1
.898	862.1	.1
.942	863.9	.1
1	866.2	.1

System: ethanol + 2-methylpropyl ethanoate; phases: Liquid, Gas
Fixed: Pressure, kPa = 600
Property: Boiling temperature at pressure P, K (Liquid); method: Ebulliometric method (Recirculating still)
Mole fraction of 2-methylpropyl ethanoate	Boiling temperature at pressure P, K	uncertainty
0	405.53	.1
.006	405.57	.1
.012	405.62	.1
.023	405.7	.1
.035	405.76	.1
.052	406.05	.1
.073	406.24	.1
.101	406.63	.1
.131	407.14	.1
.154	407.51	.1
.21	408.68	.1
.29	410.78	.1
.383	413.89	.1
.489	417.56	.1
.594	421.35	.1
.687	425.65	.1
.788	431.95	.1
.847	436.53	.1
.886	440.64	.1
.941	448.99	.1
.974	454.46	.1
1	461.03	.1

System: ethanol + 2-methylpropyl ethanoate; phases: Gas, Liquid
Fixed: Pressure, kPa = 600
Property: Mole fraction of 2-methylpropyl ethanoate (Gas); method: Density calibration data
Mole fraction of 2-methylpropyl ethanoate	Mole fraction of 2-methylpropyl ethanoate	uncertainty
0	0	.1
.006	.005	.1
.012	.007	.1
.023	.012	.1
.035	.021	.1
.052	.029	.1
.073	.039	.1
.101	.052	.1
.131	.064	.1
.154	.075	.1
.21	.098	.1
.29	.131	.1
.383	.182	.1
.489	.234	.1
.594	.288	.1
.687	.344	.1
.788	.439	.1
.847	.515	.1
.886	.589	.1
.941	.738	.1
.974	.856	.1
1	1	.1

System: 1-propanol + 2-methylpropyl ethanoate; phases: Liquid
Fixed: Pressure, kPa = 101
Fixed: Temperature, K = 298.15
Property: Mass density, kg/m3 (Liquid); method: Vibrating tube method
Mole fraction of 2-methylpropyl ethanoate	Mass density, kg/m3	uncertainty
0	799.6	.1
.053	805.4	.1
.092	809.3	.1
.145	814.5	.1
.196	819.1	.1
.249	823.5	.1
.302	827.6	.1
.346	830.9	.1
.444	837.6	.1
.482	840	.1
.508	841.6	.1
.565	845	.1
.613	847.7	.1
.719	853.3	.1
.751	854.9	.1
.804	857.5	.1
.854	859.8	.1
.889	861.4	.1
.909	862.3	.1
.953	864.2	.1
1	866.2	.1

System: 1-propanol + 2-methylpropyl ethanoate; phases: Liquid, Gas
Fixed: Pressure, kPa = 600
Property: Boiling temperature at pressure P, K (Liquid); method: Ebulliometric method (Recirculating still)
Mole fraction of 2-methylpropyl ethanoate	Boiling temperature at pressure P, K	uncertainty
0	427.2	.1
.004	427.11	.1
.005	427.02	.1
.006	426.94	.1
.011	426.86	.1
.017	426.93	.1
.03	426.99	.1
.052	427.11	.1
.078	427.42	.1
.102	427.79	.1
.138	428.35	.1
.178	429	.1
.216	429.68	.1
.249	430.21	.1
.277	430.62	.1
.341	431.73	.1
.406	433.12	.1
.506	435.54	.1
.549	437.01	.1
.601	439.03	.1
.685	441.75	.1
.737	444.03	.1
.807	447.35	.1
.852	450.29	.1
.898	453.5	.1
.933	455.89	.1
.971	458.58	.1
1	461.03	.1

System: 1-propanol + 2-methylpropyl ethanoate; phases: Gas, Liquid
Fixed: Pressure, kPa = 600
Property: Mole fraction of 2-methylpropyl ethanoate (Gas); method: Density calibration data
Mole fraction of 2-methylpropyl ethanoate	Mole fraction of 2-methylpropyl ethanoate	uncertainty
0	0	.1
.004	.006	.1
.005	.006	.1
.006	.007	.1
.011	.011	.1
.017	.016	.1
.03	.024	.1
.052	.037	.1
.078	.055	.1
.102	.071	.1
.138	.093	.1
.178	.114	.1
.216	.139	.1
.249	.158	.1
.277	.176	.1
.341	.217	.1
.406	.252	.1
.506	.321	.1
.549	.36	.1
.601	.405	.1
.685	.473	.1
.737	.531	.1
.807	.619	.1
.852	.691	.1
.898	.786	.1
.933	.85	.1
.971	.929	.1
1	1	.1

System: 2-propanol + 2-methylpropyl ethanoate; phases: Liquid
Fixed: Pressure, kPa = 101
Fixed: Temperature, K = 298.15
Property: Mass density, kg/m3 (Liquid); method: Vibrating tube method
Mole fraction of 2-methylpropyl ethanoate	Mass density, kg/m3	uncertainty
0	781.3	.1
.051	787.4	.1
.126	796.2	.1
.204	804.7	.1
.235	807.9	.1
.352	819.1	.1
.407	824	.1
.501	831.8	.1
.549	835.6	.1
.677	845.1	.1
.752	850.3	.1
.799	853.5	.1
.868	857.9	.1
.949	863.1	.1
1	866.2	.1

System: 2-propanol + 2-methylpropyl ethanoate; phases: Liquid, Gas
Fixed: Pressure, kPa = 600
Property: Boiling temperature at pressure P, K (Liquid); method: Ebulliometric method (Recirculating still)
Mole fraction of 2-methylpropyl ethanoate	Boiling temperature at pressure P, K	uncertainty
0	410.08	.1
.009	410.17	.1
.019	410.26	.1
.034	410.32	.1
.055	410.54	.1
.077	410.8	.1
.113	411.25	.1
.139	411.78	.1
.171	412.35	.1
.209	413.2	.1
.24	414	.1
.325	416.02	.1
.449	420.36	.1
.542	424.39	.1
.667	430.69	.1
.711	433.13	.1
.736	434.83	.1
.77	437.01	.1
.807	439.38	.1
.865	444.05	.1
.907	448.8	.1
.946	453.69	.1
.972	456.61	.1
1	461.03	.1

System: 2-propanol + 2-methylpropyl ethanoate; phases: Gas, Liquid
Fixed: Pressure, kPa = 600
Property: Mole fraction of 2-methylpropyl ethanoate (Gas); method: Density calibration data
Mole fraction of 2-methylpropyl ethanoate	Mole fraction of 2-methylpropyl ethanoate	uncertainty
0	0	.1
.009	.005	.1
.019	.009	.1
.034	.018	.1
.055	.027	.1
.077	.036	.1
.113	.051	.1
.139	.064	.1
.171	.076	.1
.209	.09	.1
.24	.109	.1
.325	.148	.1
.449	.219	.1
.542	.281	.1
.667	.375	.1
.711	.413	.1
.736	.441	.1
.77	.479	.1
.807	.527	.1
.865	.624	.1
.907	.718	.1
.946	.821	.1
.972	.895	.1
1	1	.1
