Measured thermophysical data. Determination and correlation of solubility of N-methyl-3,4,5- trinitropyrazole (MTNP) in ten pure solvents from 283.15 K to 323.15 K
Source: Fluid Phase Equilib., 2017, 10.1016/j.fluid.2017.04.008
Compound 1: 1-methyl-3,4,5-trinitropyrazole, C4H3N5O6
Compound 2: benzene, C6H6, purity 99.5%
Compound 3: methanol, CH4O, purity 99.5%
Compound 4: ethanol, C2H6O, purity 99.5%
Compound 5: n-propanol, C3H8O, purity 99.5%
Compound 6: isopropyl alcohol, C3H8O, purity 99.5%
Compound 7: n-butanol, C4H10O, purity 99.5%
Compound 8: isobutyl alcohol, C4H10O, purity 99.5%
Compound 9: isoamyl alcohol, C5H12O, purity 99.5%
Compound 10: water, H2O, purity 99.8%
Compound 11: 1-pentanol, C5H12O, purity 99.5%

System: 1-methyl-3,4,5-trinitropyrazole; phases: Crystal, Liquid, Air at 1 atmosphere
Property: Normal melting temperature, K (Crystal); method: DSC/DTA
Normal melting temperature, K	uncertainty
364.95	.5

System: benzene + 1-methyl-3,4,5-trinitropyrazole; phases: Liquid, Crystal
Fixed: Pressure, kPa = 100
Property: Mole fraction of 1-methyl-3,4,5-trinitropyrazole (Liquid); method: gravimetric
Temperature, K	Mole fraction of 1-methyl-3,4,5-trinitropyrazole	uncertainty
283.15	.017524	
288.15	.022987	
293.15	.028331	
298.15	.037553	
303.15	.050737	
308.15	.069476	
313.15	.095364	
318.15	.124896	
323.15	.167978	

System: methanol + 1-methyl-3,4,5-trinitropyrazole; phases: Liquid, Crystal
Fixed: Pressure, kPa = 100
Property: Mole fraction of 1-methyl-3,4,5-trinitropyrazole (Liquid); method: gravimetric
Temperature, K	Mole fraction of 1-methyl-3,4,5-trinitropyrazole	uncertainty
283.15	.022594	
288.15	.025575	
293.15	.028756	
298.15	.032554	
303.15	.037011	
308.15	.043042	
313.15	.049214	
318.15	.057138	
323.15	.065802	

System: ethanol + 1-methyl-3,4,5-trinitropyrazole; phases: Liquid, Crystal
Fixed: Pressure, kPa = 100
Property: Mole fraction of 1-methyl-3,4,5-trinitropyrazole (Liquid); method: gravimetric
Temperature, K	Mole fraction of 1-methyl-3,4,5-trinitropyrazole	uncertainty
283.15	.012338	
288.15	.013625	
293.15	.015964	
298.15	.017982	
303.15	.020606	
308.15	.023642	
313.15	.027669	
318.15	.032295	
323.15	.038256	

System: n-propanol + 1-methyl-3,4,5-trinitropyrazole; phases: Liquid, Crystal
Fixed: Pressure, kPa = 100
Property: Mole fraction of 1-methyl-3,4,5-trinitropyrazole (Liquid); method: gravimetric
Temperature, K	Mole fraction of 1-methyl-3,4,5-trinitropyrazole	uncertainty
283.15	.006101	
288.15	.007389	
293.15	.008508	
298.15	.009992	
303.15	.011795	
308.15	.014061	
313.15	.016961	
318.15	.020525	
323.15	.025294	

System: isopropyl alcohol + 1-methyl-3,4,5-trinitropyrazole; phases: Liquid, Crystal
Fixed: Pressure, kPa = 100
Property: Mole fraction of 1-methyl-3,4,5-trinitropyrazole (Liquid); method: gravimetric
Temperature, K	Mole fraction of 1-methyl-3,4,5-trinitropyrazole	uncertainty
283.15	.003743	
288.15	.004521	
293.15	.005481	
298.15	.006647	
303.15	.008157	
308.15	.010215	
313.15	.012865	
318.15	.01623	
323.15	.020764	

System: n-butanol + 1-methyl-3,4,5-trinitropyrazole; phases: Liquid, Crystal
Fixed: Pressure, kPa = 100
Property: Mole fraction of 1-methyl-3,4,5-trinitropyrazole (Liquid); method: gravimetric
Temperature, K	Mole fraction of 1-methyl-3,4,5-trinitropyrazole	uncertainty
283.15	.005527	
288.15	.006353	
293.15	.007532	
298.15	.008669	
303.15	.010541	
308.15	.012635	
313.15	.01543	
318.15	.018389	
323.15	.02293	

System: isobutyl alcohol + 1-methyl-3,4,5-trinitropyrazole; phases: Liquid, Crystal
Fixed: Pressure, kPa = 100
Property: Mole fraction of 1-methyl-3,4,5-trinitropyrazole (Liquid); method: gravimetric
Temperature, K	Mole fraction of 1-methyl-3,4,5-trinitropyrazole	uncertainty
283.15	.002472	
288.15	.002964	
293.15	.003639	
298.15	.004437	
303.15	.00557	
308.15	.006964	
313.15	.008771	
318.15	.011045	
323.15	.01427	

System: isoamyl alcohol + 1-methyl-3,4,5-trinitropyrazole; phases: Liquid, Crystal
Fixed: Pressure, kPa = 100
Property: Mole fraction of 1-methyl-3,4,5-trinitropyrazole (Liquid); method: gravimetric
Temperature, K	Mole fraction of 1-methyl-3,4,5-trinitropyrazole	uncertainty
283.15	.003971	
288.15	.004726	
293.15	.005777	
298.15	.007048	
303.15	.00836	
308.15	.01022	
313.15	.012644	
318.15	.0155	
323.15	.019015	

System: water + 1-methyl-3,4,5-trinitropyrazole; phases: Liquid, Crystal
Fixed: Pressure, kPa = 100
Property: Mole fraction of 1-methyl-3,4,5-trinitropyrazole (Liquid); method: gravimetric
Temperature, K	Mole fraction of 1-methyl-3,4,5-trinitropyrazole	uncertainty
283.15	.000058	
288.15	.000074	
293.15	.000096	
298.15	.000121	
303.15	.000147	
308.15	.000181	
313.15	.000219	
318.15	.000266	
323.15	.000321	

System: 1-pentanol + 1-methyl-3,4,5-trinitropyrazole; phases: Liquid, Crystal
Fixed: Pressure, kPa = 100
Property: Mole fraction of 1-methyl-3,4,5-trinitropyrazole (Liquid); method: gravimetric
Temperature, K	Mole fraction of 1-methyl-3,4,5-trinitropyrazole	uncertainty
283.15	.005374	
288.15	.006536	
293.15	.007817	
298.15	.009331	
303.15	.011067	
308.15	.013381	
313.15	.016473	
318.15	.019934	
323.15	.023782	
