Measured thermophysical data. Desulfurization of fuels by liquid-liquid extraction with1-ethyl-3-methylimidazolium ionic liquids
Source: Fluid Phase Equilib., 2013, 10.1016/j.fluid.2013.07.028
Compound 1: n-hexane, C6H14, purity 99%
Compound 2: toluene, C7H8, purity 99.5%
Compound 3: thiophene, C4H4S, purity 99.5%
Compound 4: pyridine, C5H5N, purity 99.5%
Compound 5: 1-ethyl-3-methylimidazolium acetate, C8H14N2O2, purity 95%
Compound 6: 1-ethyl-3-methylimidazolium diethylphosphate, C10H21N2O4P, purity 95%

System: n-hexane; phases: Liquid
Fixed: Pressure, kPa = 101.325
Property: Mass density, kg/m3 (Liquid); method: Vibrating tube method
Temperature, K	Mass density, kg/m3	uncertainty
298.15	655.09	.05

System: n-hexane; phases: Liquid
Fixed: Pressure, kPa = 101.325
Property: Refractive index (Na D-line) (Liquid); method: Standard Abbe refractometry
Temperature, K	Refractive index (Na D-line)	uncertainty
298.15	1.37236	.00004

System: toluene; phases: Liquid
Fixed: Pressure, kPa = 101.325
Property: Mass density, kg/m3 (Liquid); method: Vibrating tube method
Temperature, K	Mass density, kg/m3	uncertainty
298.15	862.18	.05

System: toluene; phases: Liquid
Fixed: Pressure, kPa = 101.325
Property: Refractive index (Na D-line) (Liquid); method: Standard Abbe refractometry
Temperature, K	Refractive index (Na D-line)	uncertainty
298.15	1.49367	.00004

System: thiophene; phases: Liquid
Fixed: Pressure, kPa = 101.325
Property: Mass density, kg/m3 (Liquid); method: Vibrating tube method
Temperature, K	Mass density, kg/m3	uncertainty
298.15	1058.61	.05

System: thiophene; phases: Liquid
Fixed: Pressure, kPa = 101.325
Property: Refractive index (Na D-line) (Liquid); method: Standard Abbe refractometry
Temperature, K	Refractive index (Na D-line)	uncertainty
298.15	1.52523	.00004

System: pyridine; phases: Liquid
Fixed: Pressure, kPa = 101.325
Property: Mass density, kg/m3 (Liquid); method: Vibrating tube method
Temperature, K	Mass density, kg/m3	uncertainty
298.15	978.04	.05

System: pyridine; phases: Liquid
Fixed: Pressure, kPa = 101.325
Property: Refractive index (Na D-line) (Liquid); method: Standard Abbe refractometry
Temperature, K	Refractive index (Na D-line)	uncertainty
298.15	1.50636	.00004

System: 1-ethyl-3-methylimidazolium acetate; phases: Liquid
Fixed: Pressure, kPa = 101.325
Property: Mass density, kg/m3 (Liquid); method: Vibrating tube method
Temperature, K	Mass density, kg/m3	uncertainty
298.15	1099.02	.05

System: 1-ethyl-3-methylimidazolium acetate; phases: Liquid
Fixed: Pressure, kPa = 101.325
Property: Refractive index (Na D-line) (Liquid); method: Standard Abbe refractometry
Temperature, K	Refractive index (Na D-line)	uncertainty
298.15	1.50069	.00004

System: 1-ethyl-3-methylimidazolium diethylphosphate; phases: Liquid
Fixed: Pressure, kPa = 101.325
Property: Mass density, kg/m3 (Liquid); method: Vibrating tube method
Temperature, K	Mass density, kg/m3	uncertainty
298.15	1148.4	.05

System: 1-ethyl-3-methylimidazolium diethylphosphate; phases: Liquid
Fixed: Pressure, kPa = 101.325
Property: Refractive index (Na D-line) (Liquid); method: Standard Abbe refractometry
Temperature, K	Refractive index (Na D-line)	uncertainty
298.15	1.47304	.00004

System: toluene + thiophene + 1-ethyl-3-methylimidazolium acetate; phases: Liquid mixture 1, Liquid mixture 2
Property: Mole fraction of 1-ethyl-3-methylimidazolium acetate (Liquid mixture 1); method: Chromatography
Property: Mole fraction of thiophene (Liquid mixture 2); method: Chromatography
Property: Mole fraction of 1-ethyl-3-methylimidazolium acetate (Liquid mixture 2); method: Chromatography
Temperature, K	Pressure, kPa	Mole fraction of thiophene	Mole fraction of 1-ethyl-3-methylimidazolium acetate	uncertainty	Mole fraction of thiophene	uncertainty	Mole fraction of 1-ethyl-3-methylimidazolium acetate	uncertainty
298.15	101.3	0	.793	.007	0	.006	0	.006
298.15	101.3	.032	.772	.007	.035	.006	0	.006
298.15	101.3	.115	.712	.007	.141	.006	0	.006
298.15	101.3	.212	.639	.007	.304	.006	0	.006
298.15	101.3	.329	.537	.007	.474	.006	0	.006
298.15	101.3	.45	.452	.007	.652	.006	0	.006
298.15	101.3	.558	.376	.007	.791	.006	0	.006
298.15	101.3	.669	.311	.007	.946	.006	0	.006
298.15	101.3	.707	.293	.007	1	.006	0	.006

System: toluene + pyridine + 1-ethyl-3-methylimidazolium acetate; phases: Liquid mixture 1, Liquid mixture 2
Property: Mole fraction of 1-ethyl-3-methylimidazolium acetate (Liquid mixture 1); method: Chromatography
Property: Mole fraction of pyridine (Liquid mixture 2); method: Chromatography
Property: Mole fraction of 1-ethyl-3-methylimidazolium acetate (Liquid mixture 2); method: Chromatography
Temperature, K	Pressure, kPa	Mole fraction of pyridine	Mole fraction of 1-ethyl-3-methylimidazolium acetate	uncertainty	Mole fraction of pyridine	uncertainty	Mole fraction of 1-ethyl-3-methylimidazolium acetate	uncertainty
298.15	101.3	0	.998	.007	0	.006	0	.006
298.15	101.3	.108	.889	.007	.051	.006	0	.006
298.15	101.3	.252	.737	.007	.129	.006	0	.006
298.15	101.3	.332	.658	.007	.204	.006	0	.006
298.15	101.3	.482	.503	.007	.325	.006	0	.006
298.15	101.3	.551	.426	.007	.454	.006	0	.006
298.15	101.3	.626	.342	.007	.618	.006	0	.006
298.15	101.3	.654	.312	.007	.726	.006	0	.006
298.15	101.3	.712	.253	.007	.798	.006	0	.006

System: toluene + thiophene + 1-ethyl-3-methylimidazolium diethylphosphate; phases: Liquid mixture 1, Liquid mixture 2
Property: Mole fraction of 1-ethyl-3-methylimidazolium diethylphosphate (Liquid mixture 1); method: Chromatography
Property: Mole fraction of thiophene (Liquid mixture 2); method: Chromatography
Property: Mole fraction of 1-ethyl-3-methylimidazolium diethylphosphate (Liquid mixture 2); method: Chromatography
Temperature, K	Pressure, kPa	Mole fraction of thiophene	Mole fraction of 1-ethyl-3-methylimidazolium diethylphosphate	uncertainty	Mole fraction of thiophene	uncertainty	Mole fraction of 1-ethyl-3-methylimidazolium diethylphosphate	uncertainty
298.15	101.3	0	.471	.007	0	.006	0	.006
298.15	101.3	.123	.42	.007	.112	.006	0	.006
298.15	101.3	.217	.385	.007	.226	.006	0	.006
298.15	101.3	.291	.36	.007	.311	.006	0	.006
298.15	101.3	.409	.309	.007	.452	.006	0	.006
298.15	101.3	.511	.27	.007	.597	.006	0	.006
298.15	101.3	.603	.236	.007	.712	.006	0	.006
298.15	101.3	.724	.191	.007	.87	.006	0	.006
298.15	101.3	.866	.134	.007	1	.006	0	.006

System: thiophene + n-hexane + 1-ethyl-3-methylimidazolium diethylphosphate; phases: Liquid mixture 2, Liquid mixture 1
Property: Mole fraction of 1-ethyl-3-methylimidazolium diethylphosphate (Liquid mixture 2); method: Chromatography
Property: Mole fraction of 1-ethyl-3-methylimidazolium diethylphosphate (Liquid mixture 1); method: Chromatography
Property: Mole fraction of thiophene (Liquid mixture 1); method: Chromatography
Temperature, K	Pressure, kPa	Mole fraction of thiophene	Mole fraction of 1-ethyl-3-methylimidazolium diethylphosphate	uncertainty	Mole fraction of 1-ethyl-3-methylimidazolium diethylphosphate	uncertainty	Mole fraction of thiophene	uncertainty
298.15	101.3	0	0	.006	.942	.007	0	.007
298.15	101.3	.917	0	.006	.166	.007	.802	.007
298.15	101.3	1	0	.006	.116	.007	.884	.007
298.15	101.3	.016	0	.006	.896	.007	.046	.007
298.15	101.3	.09	0	.006	.735	.007	.21	.007
298.15	101.3	.168	0	.006	.611	.007	.34	.007
298.15	101.3	.304	0	.006	.506	.007	.45	.007
298.15	101.3	.431	0	.006	.405	.007	.54	.007
298.15	101.3	.608	0	.006	.332	.007	.617	.007
298.15	101.3	.71	0	.006	.269	.007	.678	.007
298.15	101.3	.804	0	.006	.239	.007	.712	.007

System: n-hexane + pyridine + 1-ethyl-3-methylimidazolium diethylphosphate; phases: Liquid mixture 2, Liquid mixture 1
Property: Mole fraction of 1-ethyl-3-methylimidazolium diethylphosphate (Liquid mixture 2); method: Chromatography
Property: Mole fraction of 1-ethyl-3-methylimidazolium diethylphosphate (Liquid mixture 1); method: Chromatography
Property: Mole fraction of pyridine (Liquid mixture 1); method: Chromatography
Temperature, K	Pressure, kPa	Mole fraction of pyridine	Mole fraction of 1-ethyl-3-methylimidazolium diethylphosphate	uncertainty	Mole fraction of 1-ethyl-3-methylimidazolium diethylphosphate	uncertainty	Mole fraction of pyridine	uncertainty
298.154	101.3	0	0	.006	.94	.006	0	.006
298.154	101.3	.02	0	.006	.851	.006	.1	.006
298.154	101.3	.049	0	.006	.758	.006	.196	.006
298.154	101.3	.084	0	.006	.671	.006	.274	.006
298.154	101.3	.143	0	.006	.552	.006	.397	.006
298.154	101.3	.274	0	.006	.42	.006	.529	.006
298.154	101.3	.322	0	.006	.377	.006	.572	.006
298.154	101.3	.427	.003	.006	.299	.006	.65	.006
298.154	101.3	.555	0	.006	.209	.006	.706	.006

System: thiophene + n-hexane + 1-ethyl-3-methylimidazolium acetate; phases: Liquid mixture 2, Liquid mixture 1
Property: Mole fraction of 1-ethyl-3-methylimidazolium acetate (Liquid mixture 2); method: Chromatography
Property: Mole fraction of 1-ethyl-3-methylimidazolium acetate (Liquid mixture 1); method: Chromatography
Property: Mole fraction of thiophene (Liquid mixture 1); method: Chromatography
Temperature, K	Pressure, kPa	Mole fraction of thiophene	Mole fraction of 1-ethyl-3-methylimidazolium acetate	uncertainty	Mole fraction of 1-ethyl-3-methylimidazolium acetate	uncertainty	Mole fraction of thiophene	uncertainty
298.15	101.3	0	0	.006	.99	.006	0	.006
298.15	101.3	.983	0	.006	.327	.006	.671	.006
298.15	101.3	1	0	.006	.293	.006	.707	.006
298.15	101.3	.059	0	.006	.901	.006	.088	.006
298.15	101.3	.176	0	.006	.767	.006	.223	.006
298.15	101.3	.34	0	.006	.675	.006	.316	.006
298.15	101.3	.488	0	.006	.6	.006	.391	.006
298.15	101.3	.645	0	.006	.521	.006	.469	.006
298.15	101.3	.745	0	.006	.487	.006	.503	.006
298.15	101.3	.821	0	.006	.428	.006	.561	.006
298.15	101.3	.922	0	.006	.367	.006	.625	.006
