Measured thermophysical data. Isobaric ternary vapour-liquid equilibrium of methanol(1) + diisopropyl ether(2) + isopropyl alcohol(3) along with methanol + isopropyl alcohol binary data at atmospheric and sub-atmospheric pressures
Source: Fluid Phase Equilib., 2015, 10.1016/j.fluid.2015.07.023
Compound 1: methanol, CH4O, purity 99.8%
Compound 2: diisopropyl ether, C6H14O, purity 98.5%
Compound 3: isopropyl alcohol, C3H8O, purity 99.8%

System: methanol; phases: Liquid
Fixed: Pressure, kPa = 101.325
Property: Mass density, kg/m3 (Liquid); method: mechanical oscillator
Temperature, K	Mass density, kg/m3	uncertainty
298.15	786.62	.1

System: methanol; phases: Liquid
Fixed: Pressure, kPa = 101.325
Property: Refractive index (Na D-line) (Liquid); method: Standard Abbe refractometry
Temperature, K	Refractive index (Na D-line)	uncertainty
298.15	1.32666	.000051

System: diisopropyl ether; phases: Liquid
Fixed: Pressure, kPa = 101.325
Property: Mass density, kg/m3 (Liquid); method: mechanical oscillator
Temperature, K	Mass density, kg/m3	uncertainty
298.15	718.3	.1

System: diisopropyl ether; phases: Liquid
Fixed: Pressure, kPa = 101.325
Property: Refractive index (Na D-line) (Liquid); method: Standard Abbe refractometry
Temperature, K	Refractive index (Na D-line)	uncertainty
298.15	1.3653	.000051

System: isopropyl alcohol; phases: Liquid
Fixed: Pressure, kPa = 101.325
Property: Mass density, kg/m3 (Liquid); method: mechanical oscillator
Temperature, K	Mass density, kg/m3	uncertainty
298.15	782.45	.1

System: isopropyl alcohol; phases: Liquid
Fixed: Pressure, kPa = 101.325
Property: Refractive index (Na D-line) (Liquid); method: Standard Abbe refractometry
Temperature, K	Refractive index (Na D-line)	uncertainty
298.15	1.37522	.000051

System: methanol + isopropyl alcohol; phases: Liquid, Gas
Property: Boiling temperature at pressure P, K (Liquid); method: Ebulliometric method (Recirculating still)
Pressure, kPa	Mole fraction of methanol	Boiling temperature at pressure P, K	uncertainty
53.33	0	340.05	.01
53.33	.023	339.15	.01
53.33	.073	337.92	.01
53.33	.161	336.15	.01
53.33	.221	334.9	.01
53.33	.25	334.45	.01
53.33	.337	332.45	.01
53.33	.419	331.01	.01
53.33	.448	330.49	.01
53.33	.504	329.25	.01
53.33	.583	327.7	.01
53.33	.654	326.25	.01
53.33	.687	325.7	.01
53.33	.747	324.75	.01
53.33	.797	324.35	.01
53.33	.824	324.15	.01
53.33	.85	323.75	.01
53.33	.902	323.35	.01
53.33	.926	322.93	.01
53.33	.95	322.71	.01
53.33	.973	322.45	.01
53.33	1	322.2	.01
66.66	0	345.25	.01
66.66	.023	344.15	.01
66.66	.073	342.45	.01
66.66	.161	340.49	.01
66.66	.221	339.33	.01
66.66	.25	338.6	.01
66.66	.337	337.05	.01
66.66	.419	335.25	.01
66.66	.448	335	.01
66.66	.504	333.85	.01
66.66	.583	332.3	.01
66.66	.654	331.25	.01
66.66	.747	330.15	.01
66.66	.797	329.5	.01
66.66	.824	329.15	.01
66.66	.85	328.65	.01
66.66	.902	328.15	.01
66.66	.926	327.71	.01
66.66	.95	327.58	.01
66.66	.973	327.5	.01
66.66	1	327.4	.01
79.99	0	349.5	.01
79.99	.023	348.4	.01
79.99	.069	347.15	.01
79.99	.133	345.95	.01
79.99	.161	345.56	.01
79.99	.221	344.55	.01
79.99	.25	343.79	.01
79.99	.337	342.15	.01
79.99	.419	340.75	.01
79.99	.448	340.25	.01
79.99	.504	339.15	.01
79.99	.583	337.47	.01
79.99	.654	336.15	.01
79.99	.687	335.78	.01
79.99	.747	334.95	.01
79.99	.807	334.07	.01
79.99	.85	333.56	.01
79.99	.902	332.92	.01
79.99	.926	332.5	.01
79.99	.973	332.14	.01
79.99	1	331.8	.01
94.79	0	354.5	.01
94.79	.023	353.74	.01
94.79	.069	352.59	.01
94.79	.133	351.56	.01
94.79	.161	350.51	.01
94.79	.221	349.69	.01
94.79	.337	347.18	.01
94.79	.419	345.61	.01
94.79	.448	345.15	.01
94.79	.51	343.81	.01
94.79	.591	341.74	.01
94.79	.654	341.08	.01
94.79	.687	340.14	.01
94.79	.747	338.97	.01
94.79	.807	338.41	.01
94.79	.85	338.15	.01
94.79	.902	337.48	.01
94.79	.926	337.16	.01
94.79	.95	336.41	.01
94.79	.973	336.17	.01
94.79	1	335.98	.01

System: methanol + isopropyl alcohol + diisopropyl ether; phases: Liquid, Gas
Property: Boiling temperature at pressure P, K (Liquid); method: Ebulliometric method (Recirculating still)
Pressure, kPa	Mole fraction of methanol	Mole fraction of diisopropyl ether	Boiling temperature at pressure P, K	uncertainty
53.33	.322	.338	314.65	.01
53.33	.221	.137	324.85	.01
53.33	.397	.084	327.2	.01
53.33	.965	.018	322.3	.01
53.33	.268	.075	328.7	.01
53.33	.545	.253	317.25	.01
53.33	.533	.326	314.4	.01
53.33	.919	.039	322.15	.01
53.33	.768	.169	318.9	.01
53.33	.262	.6	307.95	.01
53.33	.748	.069	323.35	.01
53.33	.671	.24	316.9	.01
53.33	.608	.051	325.95	.01
53.33	.708	.097	322.75	.01
53.33	.533	.141	322.7	.01
53.33	.432	.195	321	.01
66.66	.322	.338	320.1	.01
66.66	.965	.018	327.5	.01
66.66	.268	.075	332.45	.01
66.66	.545	.253	322.55	.01
66.66	.533	.326	319.9	.01
66.66	.77	.163	324.7	.01
66.66	.919	.039	327.4	.01
66.66	.768	.169	324.45	.01
66.66	.262	.6	314	.01
66.66	.671	.24	322.5	.01
66.66	.608	.051	330.95	.01
66.66	.708	.097	327.9	.01
66.66	.533	.141	327.8	.01
66.66	.432	.195	326	.01
79.99	.322	.338	324.65	.01
79.99	.965	.018	331.9	.01
79.99	.268	.075	339.05	.01
79.99	.533	.326	325.15	.01
79.99	.919	.039	331.75	.01
79.99	.768	.169	328.55	.01
79.99	.262	.6	316.2	.01
79.99	.671	.24	327	.01
79.99	.608	.051	335.9	.01
79.99	.708	.097	332.5	.01
79.99	.533	.141	332.95	.01
79.99	.432	.195	331.45	.01
95.33	.322	.338	332.7	.01
95.33	.965	.018	336.35	.01
95.33	.268	.075	342.9	.01
95.33	.533	.326	331.55	.01
95.33	.768	.169	334.5	.01
95.33	.262	.6	324.5	.01
95.33	.671	.24	333.15	.01
95.33	.608	.051	340.35	.01
95.33	.708	.097	337.75	.01
95.33	.533	.141	338.55	.01
