Measured thermophysical data. Liquid-liquid equilibria for mixtures containing water, methanol, fatty acid methyl esters, and glycerol
Source: Fluid Phase Equilib., 2010, 10.1016/j.fluid.2010.10.010
Compound 1: methanol, CH4O
Compound 2: methyl cis-9-octadecenoate, C19H36O2
Compound 3: methyl (Z,Z)-9,12-octadecadienate, C19H34O2
Compound 4: 1,2,3-propanetriol, C3H8O3
Compound 5: water, H2O, purity 99.9%

System: methanol + methyl cis-9-octadecenoate + water; phases: Liquid mixture 1, Liquid mixture 2
Fixed: Pressure, kPa = 101
Property: Mole fraction of methyl cis-9-octadecenoate (Liquid mixture 1); method: Chromatography
Temperature, K	Mole fraction of methanol	Mole fraction of methyl cis-9-octadecenoate	uncertainty
298.2	.8879	.0065	.001
298.2	.6465	.0002	.001
298.2	.9225	.0119	.001
298.2	.9366	.0528	.001
298.2	.7844	.0014	.001
298.2	.7849	.0016	.001
308.2	.8766	.0073	.001
308.2	.7113	.0009	.001
308.2	.909	.0139	.001
308.2	.9251	.0432	.001
308.2	.889	.0977	.001
308.2	.7987	.0026	.001
308.2	.784	.0021	.001
318.2	.8599	.008	.001
318.2	.6285	.0004	.001
318.2	.8975	.0157	.001
318.2	.8817	.0774	.001
318.2	.7814	.0026	.001
318.2	.7631	.2029	.001

System: methanol + methyl cis-9-octadecenoate + water; phases: Liquid mixture 1, Liquid mixture 2
Fixed: Pressure, kPa = 101
Property: Mole fraction of water (Liquid mixture 1); method: Chromatography
Property: Mole fraction of water (Liquid mixture 2); method: Chromatography
Property: Mole fraction of methanol (Liquid mixture 2); method: Chromatography
Temperature, K	Mole fraction of methanol	Mole fraction of water	uncertainty	Mole fraction of water	uncertainty	Mole fraction of methanol	uncertainty
298.2	0	.0062	.001	.9994	.001	0	.001
308.2	.0608	.0112	.001	.5289	.001	.4659	.001
318.2	0	.0073	.001	.9993	.001	0	.001
318.2	.0185	.0082	.001	.8587	.001	.1405	.001
318.2	.0337	.0102	.001	.7555	.001	.2428	.001
318.2	.0457	.0103	.001	.6653	.001	.3339	.001
318.2	.086	.016	.001	.5302	.001	.4655	.001
298.2	.0134	.0063	.001	.8556	.001	.1435	.001
298.2	.0257	.0079	.001	.7517	.001	.2471	.001
298.2	.0368	.0085	.001	.6562	.001	.3427	.001
298.2	.0519	.01	.001	.5317	.001	.4655	.001
308.2	0	.0077	.001	.9991	.001	0	.001
308.2	.0157	.008	.001	.8547	.001	.1425	.001
308.2	.0291	.0085	.001	.7535	.001	.2452	.001
308.2	.041	.0097	.001	.6575	.001	.3414	.001

System: methanol + methyl (Z,Z)-9,12-octadecadienate + water; phases: Liquid mixture 2, Liquid mixture 1
Fixed: Pressure, kPa = 101
Property: Mole fraction of methanol (Liquid mixture 2); method: Chromatography
Property: Mole fraction of methanol (Liquid mixture 1); method: Chromatography
Property: Mole fraction of water (Liquid mixture 1); method: Chromatography
Temperature, K	Mole fraction of water	Mole fraction of methanol	uncertainty	Mole fraction of methanol	uncertainty	Mole fraction of water	uncertainty
298.2	.9995	0	.001	0	.001	.003	.001
308.2	.9427	.057	.001	.0056	.001	.009	.001
308.2	.8849	.1148	.001	.0125	.001	.0091	.001
308.2	.8566	.1431	.001	.0155	.001	.0101	.001
308.2	.7479	.2514	.001	.0343	.001	.0115	.001
308.2	.6987	.3003	.001	.0432	.001	.0129	.001
308.2	.6508	.3477	.001	.0551	.001	.0158	.001
308.2	.476	.5221	.001	.1145	.001	.0176	.001
318.2	.9994	0	.001	0	.001	.0201	.001
318.2	.9451	.0539	.001	.0107	.001	.0205	.001
318.2	.8874	.1123	.001	.025	.001	.0215	.001
298.2	.9406	.0588	.001	.0021	.001	.0038	.001
318.2	.8509	.1476	.001	.032	.001	.0226	.001
318.2	.7957	.2035	.001	.0506	.001	.0255	.001
318.2	.6526	.346	.001	.1015	.001	.034	.001
318.2	.5355	.4629	.001	.1666	.001	.0434	.001
298.2	.8845	.1143	.001	.0051	.001	.004	.001
298.2	.8475	.1489	.001	.012	.001	.0088	.001
298.2	.7535	.2431	.001	.0272	.001	.0098	.001
298.2	.6957	.3004	.001	.0362	.001	.0117	.001
298.2	.6522	.3473	.001	.0408	.001	.0121	.001
298.2	.476	.5221	.001	.1135	.001	.0279	.001
308.2	.9995	0	.001	0	.001	.0082	.001

System: methanol + methyl (Z,Z)-9,12-octadecadienate + water; phases: Liquid mixture 1, Liquid mixture 2
Fixed: Pressure, kPa = 101
Property: Mole fraction of methyl (Z,Z)-9,12-octadecadienate (Liquid mixture 1); method: Chromatography
Temperature, K	Mole fraction of methanol	Mole fraction of methyl (Z,Z)-9,12-octadecadienate	uncertainty
298.2	.7677	.0023	.001
298.2	.7487	.0018	.001
298.2	.7878	.0035	.001
298.2	.727	.0016	.001
298.2	.6657	.0011	.001
298.2	.9028	.0148	.001
298.2	.8695	.0079	.001
298.2	.8117	.0037	.001
298.2	.9144	.0167	.001
298.2	.9131	.0199	.001
298.2	.9142	.023	.001
308.2	.7669	.0029	.001
308.2	.8505	.0087	.001
308.2	.6887	.0011	.001
308.2	.8874	.0172	.001
308.2	.0738	.8998	.001
308.2	.8989	.0416	.001
308.2	.888	.0595	.001
308.2	.8817	.082	.001
318.2	.7387	.0025	.001
318.2	.8475	.009	.001
318.2	.6734	.0011	.001
318.2	.8719	.0196	.001
318.2	.8571	.0826	.001
318.2	.4953	.4427	.001

System: 1,2,3-propanetriol + methanol + methyl cis-9-octadecenoate; phases: Liquid mixture 2, Liquid mixture 1
Fixed: Pressure, kPa = 101
Property: Mole fraction of methanol (Liquid mixture 2); method: Chromatography
Property: Mole fraction of methanol (Liquid mixture 1); method: Chromatography
Property: Mole fraction of 1,2,3-propanetriol (Liquid mixture 1); method: Chromatography
Temperature, K	Mole fraction of 1,2,3-propanetriol	Mole fraction of methanol	uncertainty	Mole fraction of methanol	uncertainty	Mole fraction of 1,2,3-propanetriol	uncertainty
298.2	1	0	.001	0	.001	0	.001
308.2	.555	.445	.001	.3163	.001	.0042	.001
308.2	.3735	.6265	.001	.4546	.001	.004	.001
308.2	.276	.7235	.001	.5377	.001	.0058	.001
308.2	.2033	.7954	.001	.6029	.001	.0085	.001
308.2	.1717	.8265	.001	.6693	.001	.0096	.001
318.2	1	0	.001	0	.001	0	.001
318.2	.7519	.2481	.001	.2305	.001	.0018	.001
318.2	.5899	.4101	.001	.3082	.001	.0058	.001
318.2	.4	.6	.001	.4648	.001	.0074	.001
318.2	.2836	.716	.001	.5423	.001	.0092	.001
298.2	.7487	.2513	.001	.2154	.001	0	.001
318.2	.2172	.7815	.001	.6299	.001	.0084	.001
318.2	.1939	.8042	.001	.6787	.001	.0076	.001
298.2	.5631	.4369	.001	.3185	.001	0	.001
298.2	.3661	.6339	.001	.4548	.001	.0017	.001
298.2	.2743	.7248	.001	.5122	.001	.0034	.001
298.2	.2063	.7927	.001	.5626	.001	.0065	.001
298.2	.1738	.8243	.001	.5818	.001	.0114	.001
308.2	1	0	.001	0	.001	0	.001
308.2	.7384	.2616	.001	.2438	.001	0	.001

System: 1,2,3-propanetriol + methanol + methyl cis-9-octadecenoate; phases: Liquid mixture 1, Liquid mixture 2
Fixed: Pressure, kPa = 101
Property: Mole fraction of methanol (Liquid mixture 1); method: Chromatography
Temperature, K	Mole fraction of 1,2,3-propanetriol	Mole fraction of methanol	uncertainty
298.2	.0563	.9321	.001
298.2	.0656	.9243	.001
298.2	.0473	.9389	.001
298.2	.089	.9041	.001
298.2	.0215	.9525	.001
298.2	.0169	.9529	.001
298.2	.0662	.9238	.001
298.2	.0966	.8973	.001
298.2	.0109	.9452	.001
298.2	.0315	.9495	.001
298.2	.1075	.8873	.001
298.2	.1274	.8689	.001
298.2	.1341	.8623	.001
308.2	.0628	.924	.001
308.2	.0722	.9162	.001
308.2	.0525	.9315	.001
308.2	.0992	.8937	.001
308.2	.0274	.9396	.001
308.2	.0242	.9337	.001
308.2	.0731	.9159	.001
308.2	.1046	.889	.001
308.2	.0179	.9197	.001
308.2	.0364	.9406	.001
308.2	.1379	.8581	.001
308.2	.1487	.8479	.001
318.2	.0686	.9163	.001
318.2	.0812	.9059	.001
318.2	.0593	.9227	.001
318.2	.1068	.885	.001
318.2	.1054	.8863	.001
318.2	.0325	.9266	.001
318.2	.0297	.9171	.001
318.2	.0815	.9064	.001
318.2	.1149	.8778	.001
318.2	.0246	.8914	.001
318.2	.0435	.9287	.001
318.2	.1255	.8683	.001
318.2	.1465	.8491	.001
318.2	.1572	.8391	.001

System: 1,2,3-propanetriol + methanol + methyl (Z,Z)-9,12-octadecadienate; phases: Liquid mixture 1, Liquid mixture 2
Fixed: Pressure, kPa = 101
Property: Mole fraction of methanol (Liquid mixture 1); method: Chromatography
Temperature, K	Mole fraction of 1,2,3-propanetriol	Mole fraction of methanol	uncertainty
298.2	.0692	.9163	.001
298.2	.0796	.9079	.001
298.2	.0652	.9186	.001
298.2	.1112	.88	.001
298.2	.1068	.8846	.001
298.2	.0324	.9318	.001
298.2	.0274	.9267	.001
298.2	.084	.9039	.001
298.2	.0577	.9245	.001
298.2	.0213	.8999	.001
298.2	.0424	.9316	.001
298.2	.1179	.8752	.001
308.2	.0782	.9053	.001
308.2	.0976	.8901	.001
308.2	.0667	.9142	.001
308.2	.1151	.8758	.001
308.2	.1179	.8725	.001
308.2	.0387	.9149	.001
308.2	.0341	.9043	.001
308.2	.0911	.8955	.001
308.2	.0693	.9098	.001
308.2	.0272	.8665	.001
308.2	.048	.9217	.001
308.2	.1391	.855	.001
318.2	.086	.8963	.001
318.2	.0968	.8882	.001
318.2	.0729	.9049	.001
318.2	.1233	.8682	.001
318.2	.1232	.8672	.001
318.2	.0463	.8994	.001
318.2	.0402	.8845	.001
318.2	.0931	.8918	.001
318.2	.0804	.8996	.001
318.2	.0335	.8439	.001
318.2	.0574	.9079	.001

System: 1,2,3-propanetriol + methanol + methyl (Z,Z)-9,12-octadecadienate; phases: Liquid mixture 1, Liquid mixture 2
Fixed: Pressure, kPa = 101
Property: Mole fraction of 1,2,3-propanetriol (Liquid mixture 1); method: Chromatography
Property: Mole fraction of 1,2,3-propanetriol (Liquid mixture 2); method: Chromatography
Property: Mole fraction of methanol (Liquid mixture 2); method: Chromatography
Temperature, K	Mole fraction of methanol	Mole fraction of 1,2,3-propanetriol	uncertainty	Mole fraction of 1,2,3-propanetriol	uncertainty	Mole fraction of methanol	uncertainty
298.2	0	0	.001	1	.001	0	.001
308.2	.2875	.003	.001	.5797	.001	.4203	.001
308.2	.4078	.0047	.001	.3931	.001	.6066	.001
308.2	.4938	.007	.001	.292	.001	.7071	.001
308.2	.5265	.0089	.001	.2333	.001	.765	.001
308.2	.5733	.0139	.001	.1687	.001	.8279	.001
318.2	0	0	.001	1	.001	0	.001
318.2	.1664	.0038	.001	.7649	.001	.2351	.001
318.2	.2793	.0062	.001	.5995	.001	.4005	.001
318.2	.4234	.0066	.001	.4144	.001	.5854	.001
318.2	.4875	.009	.001	.3004	.001	.6986	.001
298.2	.2078	.0028	.001	.7776	.001	.2224	.001
318.2	.5359	.011	.001	.2378	.001	.7603	.001
318.2	.5821	.0163	.001	.1686	.001	.8276	.001
298.2	.2685	.0025	.001	.5541	.001	.4448	.001
298.2	.3845	.0047	.001	.3736	.001	.6261	.001
298.2	.4779	.0053	.001	.2686	.001	.7303	.001
298.2	.515	.0062	.001	.2163	.001	.7822	.001
298.2	.5506	.0076	.001	.1689	.001	.8279	.001
308.2	0	0	.001	1	.001	0	.001
308.2	.1761	.003	.001	.7597	.001	.2403	.001
