Measured thermophysical data. Isothermal vapour liquid equilibria for 1,2-dichloroethane + nitromethane and  + nitroethane binary systems at temperatures between 333.15 and 353.15K
Source: Fluid Phase Equilib., 2010, 10.1016/j.fluid.2010.01.024
Compound 1: 1,2-dichloroethane, C2H4Cl2
Compound 2: nitromethane, CH3NO2
Compound 3: nitroethane, C2H5NO2

System: nitromethane + 1,2-dichloroethane; phases: Gas, Liquid
Property: Vapor or sublimation pressure, kPa (Gas); method: Ebulliometric method (Recirculating still)
Temperature, K	Mole fraction of 1,2-dichloroethane	Vapor or sublimation pressure, kPa	uncertainty
333.15	0	24.02	.02402
333.15	.0914	28.38	.02838
333.15	.1618	31.22	.03122
333.15	.2313	33.64	.03364
333.15	.3068	35.96	.03596
333.15	.3795	37.54	.03754
333.15	.449	38.94	.03894
333.15	.518	40.17	.04017
333.15	.5827	41.26	.04126
333.15	.6498	42.33	.04233
333.15	.7104	43.2	.0432
333.15	.7732	43.96	.04396
333.15	.8364	44.56	.04456
333.15	.9086	45.24	.04524
333.15	1	45.76	.04576
343.15	0	35.02	.03502
343.15	.0901	40.97	.04097
343.15	.1605	44.97	.04497
343.15	.2313	48.14	.04814
343.15	.3126	51.17	.05117
343.15	.3871	53.48	.05348
343.15	.449	55.57	.05557
343.15	.5163	57.3	.0573
343.15	.5827	58.93	.05893
343.15	.6481	60.13	.06013
343.15	.7122	61.35	.06135
343.15	.7732	62.37	.06237
343.15	.8364	63.17	.06317
343.15	.9106	63.93	.06393
343.15	1	64.62	.06462
353.15	0	50.42	.05042
353.15	.0914	58.32	.05832
353.15	.1618	63.62	.06362
353.15	.2313	67.91	.06791
353.15	.3287	72.02	.07202
353.15	.3887	75.18	.07518
353.15	.4506	77.94	.07794
353.15	.5163	80.5	.0805
353.15	.5827	82.45	.08245
353.15	.6481	84.39	.08439
353.15	.7122	85.85	.08585
353.15	.7732	87.22	.08722
353.15	.8364	88.35	.08835
353.15	.9086	89.37	.08937
353.15	1	90.35	.09035

System: nitromethane + 1,2-dichloroethane; phases: Gas, Liquid
Property: Mole fraction of 1,2-dichloroethane (Gas); method: Index of refraction calibration data
Temperature, K	Mole fraction of 1,2-dichloroethane	Mole fraction of 1,2-dichloroethane	uncertainty
333.15	0	0	.002
333.15	.0914	.2258	.002
333.15	.1618	.3435	.002
333.15	.2313	.4334	.002
333.15	.3068	.5147	.002
333.15	.3795	.5709	.002
333.15	.449	.6203	.002
333.15	.518	.671	.002
333.15	.5827	.7104	.002
333.15	.6498	.7545	.002
333.15	.7104	.7921	.002
333.15	.7732	.8306	.002
333.15	.8364	.874	.002
333.15	.9086	.9251	.002
333.15	1	1	.002
343.15	0	0	.002
343.15	.0901	.2161	.002
343.15	.1605	.3317	.002
343.15	.2313	.4225	.002
343.15	.3126	.5017	.002
343.15	.3871	.5642	.002
343.15	.449	.6151	.002
343.15	.5163	.6675	.002
343.15	.5827	.705	.002
343.15	.6481	.7434	.002
343.15	.7122	.7864	.002
343.15	.7732	.8228	.002
343.15	.8364	.8721	.002
343.15	.9106	.9189	.002
343.15	1	1	.002
353.15	0	0	.002
353.15	.0914	.2037	.002
353.15	.1618	.3258	.002
353.15	.2313	.4163	.002
353.15	.3287	.4888	.002
353.15	.3887	.5509	.002
353.15	.4506	.6066	.002
353.15	.5163	.6534	.002
353.15	.5827	.7014	.002
353.15	.6481	.7397	.002
353.15	.7122	.7788	.002
353.15	.7732	.8209	.002
353.15	.8364	.8681	.002
353.15	.9086	.9189	.002
353.15	1	1	.002

System: nitroethane + 1,2-dichloroethane; phases: Gas, Liquid
Property: Vapor or sublimation pressure, kPa (Gas); method: Ebulliometric method (Recirculating still)
Temperature, K	Mole fraction of 1,2-dichloroethane	Vapor or sublimation pressure, kPa	uncertainty
333.15	0	15.07	.01507
333.15	.0794	18	.018
333.15	.1247	19.76	.01976
333.15	.1774	21.65	.02165
333.15	.2338	23.57	.02357
333.15	.3014	25.72	.02572
333.15	.3726	28.08	.02808
333.15	.4363	29.96	.02996
333.15	.5058	32.05	.03205
333.15	.5811	34.3	.0343
333.15	.6549	36.32	.03632
333.15	.714	38.01	.03801
333.15	.7969	40.2	.0402
333.15	.8693	42.13	.04213
333.15	1	45.76	.04576
343.15	0	22.45	.02245
343.15	.0794	26.45	.02645
343.15	.1228	28.92	.02892
343.15	.1756	31.6	.0316
343.15	.2319	34.14	.03414
343.15	.2995	37.13	.03713
343.15	.367	40.36	.04036
343.15	.4326	43.01	.04301
343.15	.502	45.96	.04596
343.15	.5792	48.92	.04892
343.15	.6492	51.8	.0518
343.15	.714	54.06	.05406
343.15	.7969	57.22	.05722
343.15	.8713	59.7	.0597
343.15	1	64.62	.06462
353.15	0	32.78	.03278
353.15	.0794	38.26	.03826
353.15	.1247	41.66	.04166
353.15	.1756	45.1	.0451
353.15	.2319	48.68	.04868
353.15	.2976	52.69	.05269
353.15	.3801	57.04	.05704
353.15	.4326	60.57	.06057
353.15	.5735	68.86	.06886
353.15	.6492	72.75	.07275
353.15	.7083	75.87	.07587
353.15	.7988	80.07	.08007
353.15	.8693	83.59	.08359
353.15	1	90.35	.09035

System: nitroethane + 1,2-dichloroethane; phases: Gas, Liquid
Property: Mole fraction of 1,2-dichloroethane (Gas); method: Index of refraction calibration data
Temperature, K	Mole fraction of 1,2-dichloroethane	Mole fraction of 1,2-dichloroethane	uncertainty
333.15	0	0	.002
333.15	.0794	.2319	.002
333.15	.1247	.3389	.002
333.15	.1774	.4307	.002
333.15	.2338	.5114	.002
333.15	.3014	.5886	.002
333.15	.3726	.6606	.002
333.15	.4363	.7083	.002
333.15	.5058	.7621	.002
333.15	.5811	.8008	.002
333.15	.6549	.8476	.002
333.15	.714	.8752	.002
333.15	.7969	.915	.002
333.15	.8693	.943	.002
333.15	1	1	.002
343.15	0	0	.002
343.15	.0794	.2169	.002
343.15	.1228	.3239	.002
343.15	.1756	.4176	.002
343.15	.2319	.4945	.002
343.15	.2995	.5716	.002
343.15	.367	.6416	.002
343.15	.4326	.6987	.002
343.15	.502	.7447	.002
343.15	.5792	.7969	.002
343.15	.6492	.8398	.002
343.15	.714	.8713	.002
343.15	.7969	.913	.002
343.15	.8713	.941	.002
343.15	1	1	.002
353.15	0	0	.002
353.15	.0794	.2019	.002
353.15	.1247	.3108	.002
353.15	.1756	.3895	.002
353.15	.2319	.4795	.002
353.15	.2976	.5566	.002
353.15	.3801	.6302	.002
353.15	.4326	.6858	.002
353.15	.5735	.7911	.002
353.15	.6492	.8339	.002
353.15	.7083	.8634	.002
353.15	.7988	.907	.002
353.15	.8693	.939	.002
353.15	1	1	.002
