Measured thermophysical data. Vapour pressures and enthalpies of vaporization of a series of the alkylbiphenyls
Source: Fluid Phase Equilib., 2012, 10.1016/j.fluid.2012.08.020
Compound 1: 2-methyl-1,1'-biphenyl, C13H12
Compound 2: 3-methylbiphenyl, C13H12
Compound 3: 4,4'-dimethylbiphenyl, C14H14
Compound 4: 3-(1-Methylethyl)-1,1'-biphenyl, C15H16
Compound 5: 3-(1,1-Dimethylethyl)-1,1'-biphenyl, C16H18
Compound 6: 4,4'-bis(1,1-dimethylethyl)-1,1'-biphenyl, C20H26
Compound 7: 4-(1,1-dimethylethyl)-1,1'-biphenyl, C16H18
Compound 8: 4-methylbiphenyl, C13H12

System: 2-methyl-1,1'-biphenyl; phases: Liquid, Gas
Property: Molar enthalpy of vaporization or sublimation, kJ/mol (Liquid); method: Derived by Second law
Temperature, K	Molar enthalpy of vaporization or sublimation, kJ/mol	uncertainty
298.15	65.23	.18

System: 2-methyl-1,1'-biphenyl; phases: Liquid, Gas
Property: Vapor or sublimation pressure, kPa (Liquid); method: Transpiration method
Temperature, K	Vapor or sublimation pressure, kPa	uncertainty
301	.00376	.0001128
303.5	.00477	.0001431
305.9	.0056	.000168
308.4	.00692	.0002076
310.9	.00851	.0002553
313.4	.01043	.0003129
315.9	.0128	.000384
318.4	.01527	.0004581
320.8	.0183	.000549
323.3	.02232	.0006696
325.8	.02641	.0007923
328.3	.0314	.000942
330.7	.03763	.0011289
333.2	.04446	.0013338
335.7	.05183	.0015549
338.1	.06106	.0018318
340.6	.07203	.0021609
343.1	.08401	.0025203
345.6	.09811	.0029433
348.1	.1141	.003423

System: 3-methylbiphenyl; phases: Liquid, Gas
Property: Molar enthalpy of vaporization or sublimation, kJ/mol (Liquid); method: Derived by Second law
Temperature, K	Molar enthalpy of vaporization or sublimation, kJ/mol	uncertainty
298.15	68.45	.29

System: 3-methylbiphenyl; phases: Liquid, Gas
Property: Vapor or sublimation pressure, kPa (Liquid); method: Transpiration method
Temperature, K	Vapor or sublimation pressure, kPa	uncertainty
318.8	.00702	.0002106
328.1	.01408	.0004224
320.4	.00797	.0002391
323.3	.01012	.0003036
325.5	.01178	.0003534
330.3	.01692	.0005076
336.1	.02586	.0007758
338.5	.03025	.0009075
340.4	.03425	.0010275
343.2	.04154	.0012462
346.4	.05071	.0015213
333.1	.02024	.0006072
348.5	.05569	.0016707
350.8	.06543	.0019629
353.7	.07738	.0023214
356.2	.09688	.0029064
358.3	.1068	.003204
360.8	.1231	.003693
363.6	.1459	.004377
365.8	.1642	.004926

System: 4,4'-dimethylbiphenyl; phases: Crystal, Gas
Property: Molar enthalpy of vaporization or sublimation, kJ/mol (Crystal); method: Derived by Second law
Temperature, K	Molar enthalpy of vaporization or sublimation, kJ/mol	uncertainty
298.15	95.17	.55

System: 4,4'-dimethylbiphenyl; phases: Crystal, Gas
Property: Vapor or sublimation pressure, kPa (Crystal); method: Transpiration method
Temperature, K	Vapor or sublimation pressure, kPa	uncertainty
334.2	.00389	.0001167
339.3	.00638	.0001914
343.2	.00955	.0002865
349.2	.01668	.0005004
353.7	.02516	.0007548
354.6	.02591	.0007773
358.8	.03834	.0011502
363.7	.05681	.0017043
368.7	.08722	.0026166
374.5	.1474	.004422
379.5	.2146	.006438

System: 3-(1-Methylethyl)-1,1'-biphenyl; phases: Liquid, Gas
Property: Normal boiling temperature, K (Liquid); method: Ebulliometric method (Recirculating still)
Normal boiling temperature, K	uncertainty
566.539	.01

System: 3-(1-Methylethyl)-1,1'-biphenyl; phases: Liquid, Gas
Property: Molar enthalpy of vaporization or sublimation, kJ/mol (Liquid); method: Derived by Second law
Temperature, K	Molar enthalpy of vaporization or sublimation, kJ/mol	uncertainty
298.15	76.39	.83

System: 3-(1-Methylethyl)-1,1'-biphenyl; phases: Liquid, Gas
Property: Vapor or sublimation pressure, kPa (Liquid); method: Transpiration method
Temperature, K	Vapor or sublimation pressure, kPa	uncertainty
302.8	.00045	.0000135
303.3	.00044	.0000132
305.9	.00061	.0000183
307.8	.0007	.000021
309.9	.0009	.000027
312.9	.00122	.0000366
313.3	.00116	.0000348
315.9	.00146	.0000438
317.9	.00187	.0000561
319.9	.00217	.0000651
322.9	.00265	.0000795
322.9	.00276	.0000828
323.3	.0025	.000075
325.8	.00378	.0001134
327.8	.00388	.0001164
328	.00408	.0001224
329.8	.00479	.0001437
332.3	.00644	.0001932
332.8	.0062	.000186
333.3	.0064	.000192
333.3	.00674	.0002022
333.3	.0065	.000195
333.4	.00634	.0001902
333.4	.00708	.0002124
335.3	.0078	.000234
335.8	.00832	.0002496
336.3	.00811	.0002433
336.3	.0082	.000246
337.3	.00945	.0002835
337.7	.00887	.0002661
338	.00931	.0002793
338.3	.00975	.0002925
340.3	.01113	.0003339
343.1	.01478	.0004434
343.1	.01437	.0004311
342.3	.01244	.0003732
343.3	.01376	.0004128
343.3	.01441	.0004323
345.3	.01629	.0004887
345.3	.01561	.0004683
347.3	.01952	.0005856
347.3	.01755	.0005265
348.3	.01973	.0005919
348.3	.02029	.0006087
348.3	.02064	.0006192
349.3	.02026	.0006078
351.3	.02423	.0007269
353.2	.02884	.0008652
353.3	.02848	.0008544
358.2	.04134	.0012402

System: 3-(1-Methylethyl)-1,1'-biphenyl; phases: Liquid, Gas
Property: Vapor or sublimation pressure, kPa (Liquid); method: Ebulliometric method (Recirculating still)
Temperature, K	Vapor or sublimation pressure, kPa	uncertainty
434.53	2.17	.05
452.99	4.346	.05
467.03	7.152	.05
479.19	10.658	.05
486.79	13.497	.05
494.39	16.959	.05
501.93	21.066	.05
511.48	27.409	.05
519.96	34.265	.05
529.73	43.864	.05
539.88	56.027	.05
550.47	71.516	.05
562.29	92.613	.05
573.95	118.099	.05

System: 3-(1-Methylethyl)-1,1'-biphenyl; phases: Liquid, Gas
Property: Molar enthalpy of vaporization or sublimation, kJ/mol (Liquid); method: Calvet Calorimetry
Temperature, K	Molar enthalpy of vaporization or sublimation, kJ/mol	uncertainty
323.15	74.34	.52
333.15	73.2	.54
343.15	72.37	.53
353.15	71.59	.51
363.15	70.28	.52
373.15	69.54	.51

System: 3-(1,1-Dimethylethyl)-1,1'-biphenyl; phases: Liquid, Gas
Property: Normal boiling temperature, K (Liquid); method: Ebulliometric method (Recirculating still)
Normal boiling temperature, K	uncertainty
574.487	.01

System: 3-(1,1-Dimethylethyl)-1,1'-biphenyl; phases: Liquid, Gas
Property: Molar enthalpy of vaporization or sublimation, kJ/mol (Liquid); method: Derived by Second law
Temperature, K	Molar enthalpy of vaporization or sublimation, kJ/mol	uncertainty
298.15	77.12	.23

System: 3-(1,1-Dimethylethyl)-1,1'-biphenyl; phases: Liquid, Gas
Property: Vapor or sublimation pressure, kPa (Liquid); method: Transpiration method
Temperature, K	Vapor or sublimation pressure, kPa	uncertainty
323	.00191	.0000573
325.9	.00244	.0000732
328.5	.00298	.0000894
331	.00368	.0001104
333.4	.00447	.0001341
335.3	.00514	.0001542
338.2	.00653	.0001959
340.8	.00801	.0002403
343.3	.00917	.0002751
345.5	.0113	.000339
348.1	.01363	.0004089
350.7	.01622	.0004866
353.4	.01957	.0005871
356	.02333	.0006999
358.5	.0282	.000846
361.3	.03303	.0009909

System: 3-(1,1-Dimethylethyl)-1,1'-biphenyl; phases: Liquid, Gas
Property: Vapor or sublimation pressure, kPa (Liquid); method: Ebulliometric method (Recirculating still)
Temperature, K	Vapor or sublimation pressure, kPa	uncertainty
440.79	2.117	.05
459.53	4.346	.05
473.75	7.152	.05
486.07	10.658	.05
493.76	13.497	.05
501.46	16.959	.05
509.1	21.066	.05
518.78	27.409	.05
527.38	34.265	.05
537.26	43.864	.05
547.55	56.027	.05
558.29	71.516	.05
570.25	92.613	.05
582	118.099	.05

System: 4,4'-bis(1,1-dimethylethyl)-1,1'-biphenyl; phases: Liquid, Gas
Property: Molar enthalpy of vaporization or sublimation, kJ/mol (Liquid); method: Derived by Second law
Temperature, K	Molar enthalpy of vaporization or sublimation, kJ/mol	uncertainty
298.15	108.63	.5

System: 4,4'-bis(1,1-dimethylethyl)-1,1'-biphenyl; phases: Crystal, Gas
Property: Vapor or sublimation pressure, kPa (Crystal); method: Transpiration method
Temperature, K	Vapor or sublimation pressure, kPa	uncertainty
335.5	.000079	.00000237
338.5	.00011	.0000033
341.5	.000146	.00000438
343.5	.000176	.00000528
348.2	.000291	.00000873
351.5	.000425	.00001275
353.9	.000537	.00001611
358.5	.000887	.00002661
363.7	.001398	.00004194
365.5	.001697	.00005091
368.6	.002328	.00006984
370.5	.002679	.00008037
373.5	.003653	.00010959
373.7	.003396	.00010188
375.7	.004092	.00012276
378.2	.005541	.00016623
380.4	.006527	.00019581
382.5	.007664	.00022992
384.7	.009379	.00028137

System: 4-(1,1-dimethylethyl)-1,1'-biphenyl; phases: Liquid, Gas
Property: Normal boiling temperature, K (Liquid); method: Ebulliometric method (Recirculating still)
Normal boiling temperature, K	uncertainty
585.389	.01

System: 4-(1,1-dimethylethyl)-1,1'-biphenyl; phases: Liquid, Gas
Property: Vapor or sublimation pressure, kPa (Liquid); method: Ebulliometric method (Recirculating still)
Temperature, K	Vapor or sublimation pressure, kPa	uncertainty
448.41	2.117	.05
467.65	4.346	.05
482.23	7.152	.05
494.83	10.658	.05
502.69	13.497	.05
510.59	16.959	.05
518.4	21.066	.05
528.31	27.409	.05
537.1	34.265	.05
547.22	43.864	.05
557.74	56.027	.05
568.72	71.516	.05
580.98	92.613	.05
593.09	118.099	.05

System: 4-methylbiphenyl; phases: Liquid, Gas
Property: Normal boiling temperature, K (Liquid); method: Ebulliometric method (Recirculating still)
Normal boiling temperature, K	uncertainty
547.5	.01
