Measured thermophysical data. Vapour liquid equilibrium at T = 308.15 K for binary systems: Dibromomethane + n-heptane, bromotrichloromethane + n-heptane, bromotrichloromethane + dibromomethane, bromotrichloromethane + bromochloromethane and dibromomethane + bromochloromethane. Experimental data and modelling
Source: Fluid Phase Equilib., 2015, 10.1016/j.fluid.2015.03.023
Compound 1: bromotrichloromethane, CBrCl3, purity 99%
Compound 2: dibromomethane, CH2Br2, purity 99%
Compound 3: bromochloromethane, CH2BrCl, purity 99%
Compound 4: n-heptane, C7H16, purity 99.5%

System: bromotrichloromethane; phases: Liquid
Fixed: Pressure, kPa = 101.325
Property: Mass density, kg/m3 (Liquid); method: Vibrating tube method
Temperature, K	Mass density, kg/m3	uncertainty
298.15	2002.14	.02

System: bromotrichloromethane; phases: Liquid, Gas
Property: Vapor or sublimation pressure, kPa (Liquid); method: Ebulliometric method (Recirculating still)
Temperature, K	Vapor or sublimation pressure, kPa	uncertainty
308.15	8.428	.045

System: dibromomethane; phases: Liquid
Fixed: Pressure, kPa = 101.325
Property: Mass density, kg/m3 (Liquid); method: Vibrating tube method
Temperature, K	Mass density, kg/m3	uncertainty
298.15	2478.61	.02

System: dibromomethane; phases: Liquid, Gas
Property: Vapor or sublimation pressure, kPa (Liquid); method: Ebulliometric method (Recirculating still)
Temperature, K	Vapor or sublimation pressure, kPa	uncertainty
308.15	9.932	.045

System: bromochloromethane; phases: Liquid
Fixed: Pressure, kPa = 101.325
Property: Mass density, kg/m3 (Liquid); method: Vibrating tube method
Temperature, K	Mass density, kg/m3	uncertainty
298.15	1921.71	.02

System: bromochloromethane; phases: Liquid, Gas
Property: Vapor or sublimation pressure, kPa (Liquid); method: Ebulliometric method (Recirculating still)
Temperature, K	Vapor or sublimation pressure, kPa	uncertainty
308.15	31.05	.045

System: n-heptane; phases: Liquid
Fixed: Pressure, kPa = 101.325
Property: Mass density, kg/m3 (Liquid); method: Vibrating tube method
Temperature, K	Mass density, kg/m3	uncertainty
298.15	679.6	.02

System: n-heptane; phases: Liquid, Gas
Property: Vapor or sublimation pressure, kPa (Liquid); method: Ebulliometric method (Recirculating still)
Temperature, K	Vapor or sublimation pressure, kPa	uncertainty
308.15	9.916	.045

System: dibromomethane + n-heptane; phases: Liquid, Gas
Property: Azeotropic pressure, kPa (Liquid); method: By X=Y
Temperature, K	Azeotropic pressure, kPa	uncertainty
308.15	14.083	.045

System: dibromomethane + n-heptane; phases: Liquid, Gas
Property: Azeotropic composition: mole fraction of dibromomethane (Liquid); method: By X=Y
Temperature, K	Azeotropic composition: mole fraction of dibromomethane	uncertainty
308.15	.5567	.0004

System: dibromomethane + n-heptane; phases: Gas, Liquid
Fixed: Temperature, K = 308.15
Property: Vapor or sublimation pressure, kPa (Gas); method: Closed cell (Static) method
Mole fraction of dibromomethane	Vapor or sublimation pressure, kPa	uncertainty
.1407	12.203	.045
.231	13.032	.045
.3402	13.679	.045
.4391	13.997	.045
.5448	14.083	.045
.578	14.067	.045
.5796	14.093	.045
.6383	14.049	.045
.6482	14.032	.045
.6815	13.966	.045
.7227	13.874	.045
.7977	13.614	.045
.8246	13.469	.045
.8696	13.173	.045
.9124	12.739	.045
.961	11.755	.045

System: dibromomethane + n-heptane; phases: Gas, Liquid
Fixed: Temperature, K = 308.15
Property: Mole fraction of dibromomethane (Gas); method: Density calibration data
Mole fraction of dibromomethane	Mole fraction of dibromomethane	uncertainty
.1407	.2854	.0004
.231	.3807	.0004
.3402	.4616	.0004
.4391	.5131	.0004
.5448	.5555	.0004
.578	.5663	.0004
.5796	.5676	.0004
.6383	.5887	.0004
.6482	.59	.0004
.6815	.6069	.0004
.7227	.6175	.0004
.7977	.6442	.0004
.8246	.6712	.0004
.8696	.7005	.0004
.9124	.7433	.0004
.961	.8274	.0004

System: bromotrichloromethane + n-heptane; phases: Liquid, Gas
Property: Azeotropic pressure, kPa (Liquid); method: By X=Y
Temperature, K	Azeotropic pressure, kPa	uncertainty
308.15	10.044	.045

System: bromotrichloromethane + n-heptane; phases: Liquid, Gas
Property: Azeotropic composition: mole fraction of bromotrichloromethane (Liquid); method: By X=Y
Temperature, K	Azeotropic composition: mole fraction of bromotrichloromethane	uncertainty
308.15	.2584	.0004

System: bromotrichloromethane + n-heptane; phases: Gas, Liquid
Fixed: Temperature, K = 308.15
Property: Vapor or sublimation pressure, kPa (Gas); method: Closed cell (Static) method
Mole fraction of bromotrichloromethane	Vapor or sublimation pressure, kPa	uncertainty
.1003	9.999	.045
.2018	10.048	.045
.2853	10.027	.045
.3934	10.011	.045
.4648	9.949	.045
.515	9.874	.045
.5709	9.781	.045
.608	9.706	.045
.615	9.715	.045
.6769	9.577	.045
.7103	9.487	.045
.7289	9.421	.045
.7877	9.256	.045
.8322	9.127	.045
.8985	8.904	.045

System: bromotrichloromethane + n-heptane; phases: Gas, Liquid
Fixed: Temperature, K = 308.15
Property: Mole fraction of bromotrichloromethane (Gas); method: Density calibration data
Mole fraction of bromotrichloromethane	Mole fraction of bromotrichloromethane	uncertainty
.1003	.1067	.0004
.2018	.2049	.0004
.2853	.281	.0004
.3934	.3738	.0004
.4648	.4347	.0004
.515	.4767	.0004
.5709	.5236	.0004
.608	.5576	.0004
.615	.561	.0004
.6769	.6147	.0004
.7103	.6452	.0004
.7289	.6627	.0004
.7877	.7208	.0004
.8322	.7661	.0004
.8985	.8471	.0004

System: dibromomethane + bromotrichloromethane; phases: Liquid, Gas
Property: Azeotropic pressure, kPa (Liquid); method: By X=Y
Temperature, K	Azeotropic pressure, kPa	uncertainty
308.15	10.355	.045

System: dibromomethane + bromotrichloromethane; phases: Liquid, Gas
Property: Azeotropic composition: mole fraction of bromotrichloromethane (Liquid); method: By X=Y
Temperature, K	Azeotropic composition: mole fraction of bromotrichloromethane	uncertainty
308.15	.2581	.0004

System: dibromomethane + bromotrichloromethane; phases: Gas, Liquid
Fixed: Temperature, K = 308.15
Property: Vapor or sublimation pressure, kPa (Gas); method: Closed cell (Static) method
Mole fraction of bromotrichloromethane	Vapor or sublimation pressure, kPa	uncertainty
.0252	10.076	.045
.0585	10.182	.045
.0824	10.234	.045
.1494	10.299	.045
.2256	10.33	.045
.2607	10.344	.045
.2972	10.359	.045
.3263	10.361	.045
.3583	10.336	.045
.4204	10.272	.045
.4544	10.237	.045
.5279	10.122	.045
.593	9.982	.045
.6711	9.731	.045
.7426	9.461	.045
.837	9.053	.045
.9007	8.728	.045

System: dibromomethane + bromotrichloromethane; phases: Gas, Liquid
Fixed: Temperature, K = 308.15
Property: Mole fraction of bromotrichloromethane (Gas); method: Density calibration data
Mole fraction of bromotrichloromethane	Mole fraction of bromotrichloromethane	uncertainty
.0252	.0445	.0004
.0585	.0776	.0004
.0824	.1042	.0004
.1494	.154	.0004
.2256	.2285	.0004
.2607	.2615	.0004
.2972	.2966	.0004
.3263	.3121	.0004
.3583	.3429	.0004
.4204	.3927	.0004
.4544	.4163	.0004
.5279	.4683	.0004
.593	.5179	.0004
.6711	.5778	.0004
.7426	.653	.0004
.837	.7696	.0004
.9007	.8595	.0004

System: bromochloromethane + bromotrichloromethane; phases: Gas, Liquid
Fixed: Temperature, K = 308.15
Property: Vapor or sublimation pressure, kPa (Gas); method: Closed cell (Static) method
Mole fraction of bromotrichloromethane	Vapor or sublimation pressure, kPa	uncertainty
.0392	30.244	.045
.0881	29.297	.045
.1245	28.566	.045
.1918	27.202	.045
.2536	26.046	.045
.3271	24.575	.045
.3664	23.834	.045
.4174	22.784	.045
.4642	21.891	.045
.4983	21.144	.045
.5625	19.809	.045
.6026	18.923	.045
.6583	17.725	.045
.6859	17.023	.045
.7318	15.966	.045
.7744	14.862	.045
.8383	13.213	.045
.8953	11.562	.045
.9694	9.376	.045

System: bromochloromethane + bromotrichloromethane; phases: Gas, Liquid
Fixed: Temperature, K = 308.15
Property: Mole fraction of bromotrichloromethane (Gas); method: Density calibration data
Mole fraction of bromotrichloromethane	Mole fraction of bromotrichloromethane	uncertainty
.0392	0	.0004
.0881	.013	.0004
.1245	.0252	.0004
.1918	.0399	.0004
.2536	.0682	.0004
.3271	.092	.0004
.3664	.1254	.0004
.4174	.1448	.0004
.4642	.1703	.0004
.4983	.1916	.0004
.5625	.2105	.0004
.6026	.2497	.0004
.6583	.2781	.0004
.6859	.3224	.0004
.7318	.345	.0004
.7744	.3896	.0004
.8383	.4441	.0004
.8953	.5394	.0004
.9694	.6488	.0004

System: dibromomethane + bromochloromethane; phases: Gas, Liquid
Fixed: Temperature, K = 308.15
Property: Vapor or sublimation pressure, kPa (Gas); method: Closed cell (Static) method
Mole fraction of dibromomethane	Vapor or sublimation pressure, kPa	uncertainty
.0477	29.888	.045
.1026	28.515	.045
.1524	27.411	.045
.2147	26.084	.045
.2516	25.381	.045
.3318	23.799	.045
.3744	23.041	.045
.442	21.694	.045
.4824	20.873	.045
.5205	20.082	.045
.5758	18.858	.045
.6589	17.079	.045
.6822	16.54	.045
.7368	15.441	.045
.7735	14.738	.045
.8471	13.348	.045
.8857	12.553	.045
.9412	11.387	.045

System: dibromomethane + bromochloromethane; phases: Gas, Liquid
Fixed: Temperature, K = 308.15
Property: Mole fraction of dibromomethane (Gas); method: Density calibration data
Mole fraction of dibromomethane	Mole fraction of dibromomethane	uncertainty
.0477	.0136	.0004
.1026	.0342	.0004
.1524	.0555	.0004
.2147	.0839	.0004
.2516	.104	.0004
.3318	.1427	.0004
.3744	.1667	.0004
.442	.2049	.0004
.4824	.2343	.0004
.5205	.2604	.0004
.5758	.311	.0004
.6589	.3894	.0004
.6822	.4203	.0004
.7368	.4829	.0004
.7735	.534	.0004
.8471	.6351	.0004
.8857	.7059	.0004
.9412	.8229	.0004
