Measured thermophysical data. Effect of sodium caproate on the volumetric and conductometric properties of glycyl-L-glutamine and L-alanyl-L-glutamine in aqueous solution at 298.15 K
Source: Fluid Phase Equilib., 2011, 10.1016/j.fluid.2010.11.015
Compound 1: glycyl-l-glutamine, C7H13N3O4
Compound 2: L-alanyl-L-glutamine, C8H15N3O4
Compound 3: sodium hexanoate, C6H11NaO2
Compound 4: water, H2O, purity 99.8%

System: water + sodium hexanoate + glycyl-l-glutamine; phases: Liquid
Fixed: Pressure, kPa = 101
Fixed: Temperature, K = 298.15
Property: Mass density, kg/m3 (Liquid); method: Vibrating tube method
Solvent: Molality, mol/kg of sodium hexanoate	Molality, mol/kg of glycyl-l-glutamine	Mass density, kg/m3	uncertainty
.5	0	1014.054	.003
.5	.02595	1015.902	.003
.5	.04007	1016.907	.003
.5	.06067	1018.375	.003
.5	.07592	1019.461	.003
.5	.09396	1020.737	.003
.5	.1109	1021.93	.003
.5	.1508	1024.723	.003
.5	.2215	1029.599	.003
1	0	1028.755	.003
1	.03976	1031.423	.003
1	.05403	1032.388	.003
1	.0707	1033.514	.003
1	.08472	1034.455	.003
1	.1119	1036.28	.003
1	.152	1038.96	.003
1	.2005	1042.182	.003
1.5	0	1040.891	.003
1.5	.04003	1043.373	.003
1.5	.05567	1044.354	.003
1.5	.07098	1045.317	.003
1.5	.08545	1046.232	.003
1.5	.1108	1047.821	.003
1.5	.1489	1050.242	.003
1.5	.2065	1053.872	.003
2	0	1050.351	.003
2	.02543	1051.827	.003
2	.04182	1052.776	.003
2	.05791	1053.722	.003
2	.07434	1054.706	.003
2	.08824	1055.542	.003
2	.1169	1057.268	.003
2	.1555	1059.619	.003
2	.2125	1063.106	.003

System: water + sodium hexanoate + glycyl-l-glutamine; phases: Liquid
Fixed: Pressure, kPa = 101
Fixed: Temperature, K = 298.15
Property: Molar volume, m3/mol (Liquid); method: Calculated
Solvent: Molality, mol/kg of sodium hexanoate	Molality, mol/kg of glycyl-l-glutamine	Molar volume, m3/mol	uncertainty
.5	.02595	.00013091	.0000002
.5	.04007	.0001308	.0000002
.5	.06067	.00013059	.0000002
.5	.07592	.00013045	.0000002
.5	.09396	.00013038	.0000002
.5	.1109	.00013033	.0000002
.5	.1508	.00013023	.0000002
.5	.2215	.00013016	.0000002
1	.03976	.00013379	.0000002
1	.05403	.00013353	.0000002
1	.0707	.00013332	.0000002
1	.08472	.00013323	.0000002
1	.1119	.00013303	.0000002
1	.152	.00013279	.0000002
1	.2005	.00013253	.0000002
1.5	.04003	.00013768	.0000002
1.5	.05567	.00013737	.0000002
1.5	.07098	.0001371	.0000002
1.5	.08545	.00013684	.0000002
1.5	.1108	.0001366	.0000002
1.5	.1489	.00013605	.0000002
1.5	.2065	.00013553	.0000002
2	.02543	.00014067	.0000002
2	.04182	.00014059	.0000002
2	.05791	.00014026	.0000002
2	.07434	.0001398	.0000002
2	.08824	.00013947	.0000002
2	.1169	.00013893	.0000002
2	.1555	.00013823	.0000002
2	.2125	.0001374	.0000002

System: water + sodium hexanoate + glycyl-l-glutamine; phases: Liquid
Fixed: Pressure, kPa = 101
Fixed: Temperature, K = 298.15
Property: Molar conductivity, S*m2/mol (Liquid); method: conductivity meter
Solvent: Molality, mol/kg of glycyl-l-glutamine	Amount concentration (molarity), mol/dm3 of sodium hexanoate	Molar conductivity, S*m2/mol	uncertainty
.05	.00284	.0068847	.00001
.05	.003192	.0068558	.00001
.05	.0049955	.006794	.00001
.05	.0065262	.0067538	.00001
.05	.0080933	.0067319	.00001
.05	.0096753	.0067003	.00001
.05	.011306	.0066619	.00001
.05	.012799	.0066272	.00001
.05	.014333	.0065893	.00001
.05	.016112	.0065602	.00001
.05	.017499	.0065398	.00001
.05	.019012	.0065255	.00001
.05	.020366	.0064996	.00001
.05	.021655	.006481	.00001
.05	.022757	.0064603	.00001
.05	.023951	.006444	.00001
.05	.025201	.0064239	.00001
.1	.0033611	.0066587	.00001
.1	.0048994	.0066193	.00001
.1	.0067017	.0065834	.00001
.1	.0084577	.00656	.00001
.1	.010015	.0065331	.00001
.1	.01152	.0065043	.00001
.1	.013092	.006475	.00001
.1	.014583	.0064573	.00001
.1	.016063	.0064269	.00001
.1	.017504	.0064099	.00001
.1	.018856	.0063966	.00001
.1	.020241	.0063802	.00001
.1	.021606	.006353	.00001
.1	.022959	.0063326	.00001
.1	.023851	.006321	.00001
.1	.02503	.0063032	.00001
.1	.025787	.0062926	.00001
.15	.0036028	.0064395	.00001
.15	.0049059	.0064212	.00001
.15	.0064762	.0063994	.00001
.15	.0077252	.006383	.00001
.15	.0090783	.0063583	.00001
.15	.010422	.0063353	.00001
.15	.011842	.0063138	.00001
.15	.013252	.0062854	.00001
.15	.014368	.0062686	.00001
.15	.015832	.0062479	.00001
.15	.017126	.0062292	.00001
.15	.018591	.0062086	.00001
.15	.019855	.0062043	.00001
.15	.021158	.0061838	.00001
.15	.022344	.0061637	.00001
.15	.023457	.0061509	.00001
.15	.024702	.0061331	.00001
.2	.0043304	.0062227	.00001
.2	.0057992	.0062102	.00001
.2	.0074004	.0061804	.00001
.2	.0088637	.0061585	.00001
.2	.010314	.0061402	.00001
.2	.011867	.0061193	.00001
.2	.01331	.0060963	.00001
.2	.014619	.0060809	.00001
.2	.016139	.0060637	.00001
.2	.017432	.00604	.00001
.2	.018723	.0060265	.00001
.2	.019883	.0060213	.00001
.2	.021007	.0060061	.00001
.2	.022224	.005992	.00001
.2	.023206	.0059739	.00001

System: water + sodium hexanoate + L-alanyl-L-glutamine; phases: Liquid
Fixed: Pressure, kPa = 101
Fixed: Temperature, K = 298.15
Property: Mass density, kg/m3 (Liquid); method: Vibrating tube method
Solvent: Molality, mol/kg of sodium hexanoate	Molality, mol/kg of L-alanyl-L-glutamine	Mass density, kg/m3	uncertainty
.5	.03943	1016.729	.003
.5	.05916	1018.065	.003
.5	.07618	1019.213	.003
.5	.09649	1020.56	.003
.5	.1242	1022.427	.003
.5	.1544	1024.453	.003
.5	.2196	1028.699	.003
1	.04536	1031.655	.003
1	.06241	1032.751	.003
1	.08121	1033.952	.003
1	.1033	1035.346	.003
1	.125	1036.753	.003
1	.1598	1038.951	.003
1	.2277	1043.24	.003
1.5	.02695	1042.485	.003
1.5	.04469	1043.535	.003
1.5	.06122	1044.516	.003
1.5	.08095	1045.7	.003
1.5	.1057	1047.191	.003
1.5	.1246	1048.318	.003
1.5	.1649	1050.74	.003
1.5	.2275	1054.447	.003
2	.04583	1052.881	.003
2	.06357	1053.875	.003
2	.07821	1054.707	.003
2	.09704	1055.789	.003
2	.1293	1057.647	.003
2	.1647	1059.718	.003
2	.1853	1060.937	.003

System: water + sodium hexanoate + L-alanyl-L-glutamine; phases: Liquid
Fixed: Pressure, kPa = 101
Fixed: Temperature, K = 298.15
Property: Molar volume, m3/mol (Liquid); method: Calculated
Solvent: Molality, mol/kg of sodium hexanoate	Molality, mol/kg of L-alanyl-L-glutamine	Molar volume, m3/mol	uncertainty
.5	.03943	.00014785	.0000002
.5	.05916	.00014769	.0000002
.5	.07618	.0001476	.0000002
.5	.09649	.00014769	.0000002
.5	.1242	.00014743	.0000002
.5	.1544	.0001472	.0000002
.5	.2196	.00014723	.0000002
1	.04536	.00015032	.0000002
1	.06241	.00015007	.0000002
1	.08121	.00014992	.0000002
1	.1033	.0001499	.0000002
1	.125	.00014953	.0000002
1	.1598	.00014938	.0000002
1	.2277	.00014894	.0000002
1.5	.02695	.00015386	.0000002
1.5	.04469	.00015369	.0000002
1.5	.06122	.0001535	.0000002
1.5	.08095	.00015315	.0000002
1.5	.1057	.00015275	.0000002
1.5	.1246	.00015258	.0000002
1.5	.1649	.00015212	.0000002
1.5	.2275	.00015171	.0000002
2	.04583	.00015639	.0000002
2	.06357	.00015604	.0000002
2	.07821	.00015568	.0000002
2	.09704	.00015521	.0000002
2	.1293	.00015459	.0000002
2	.1647	.00015388	.0000002
2	.1853	.00015348	.0000002

System: water + sodium hexanoate + L-alanyl-L-glutamine; phases: Liquid
Fixed: Pressure, kPa = 101
Fixed: Temperature, K = 298.15
Property: Molar conductivity, S*m2/mol (Liquid); method: conductivity meter
Solvent: Molality, mol/kg of L-alanyl-L-glutamine	Amount concentration (molarity), mol/dm3 of sodium hexanoate	Molar conductivity, S*m2/mol	uncertainty
.05	.0031194	.0067439	.00001
.05	.0049429	.0067313	.00001
.05	.0064613	.0067219	.00001
.05	.0079581	.0066932	.00001
.05	.0096529	.0066613	.00001
.05	.011493	.0066308	.00001
.05	.01311	.0066056	.00001
.05	.014465	.006583	.00001
.05	.015936	.0065585	.00001
.05	.017163	.0065355	.00001
.05	.018775	.0065273	.00001
.05	.019769	.0065089	.00001
.05	.021034	.0064862	.00001
.05	.02209	.0064731	.00001
.05	.023229	.0064569	.00001
.1	.0049392	.0064113	.00001
.1	.0062228	.0064055	.00001
.1	.0075135	.0063957	.00001
.1	.0088701	.0063783	.00001
.1	.010269	.0063712	.00001
.1	.011617	.0063565	.00001
.1	.012871	.0063398	.00001
.1	.014105	.0063276	.00001
.1	.015229	.0063123	.00001
.1	.016435	.0063017	.00001
.1	.017682	.00629	.00001
.1	.018929	.0062798	.00001
.1	.020331	.006266	.00001
.1	.021467	.0062553	.00001
.1	.022936	.0062311	.00001
.1	.024606	.0062126	.00001
.15	.0041505	.0061635	.00001
.15	.0066184	.0061596	.00001
.15	.0080373	.0061598	.00001
.15	.0094019	.0061373	.00001
.15	.010846	.0061259	.00001
.15	.012098	.0061065	.00001
.15	.013468	.0060938	.00001
.15	.014801	.0060692	.00001
.15	.015907	.0060524	.00001
.15	.01731	.0060417	.00001
.15	.018656	.0060338	.00001
.15	.019945	.0060164	.00001
.15	.021121	.0060075	.00001
.15	.02226	.0059947	.00001
.15	.023451	.0059607	.00001
.2	.0036308	.0058393	.00001
.2	.0051172	.0058084	.00001
.2	.0066015	.0057767	.00001
.2	.0080808	.0057602	.00001
.2	.0094586	.0057528	.00001
.2	.010901	.0057331	.00001
.2	.012406	.0057162	.00001
.2	.013912	.0056941	.00001
.2	.015247	.0056829	.00001
.2	.016686	.0056647	.00001
.2	.017987	.0056499	.00001
.2	.019127	.0056388	.00001
.2	.020495	.0056304	.00001
.2	.021654	.0056168	.00001
.2	.022925	.005601	.00001
.2	.024167	.0055891	.00001
.2	.024873	.0055799	.00001

System: water + glycyl-l-glutamine; phases: Liquid
Fixed: Pressure, kPa = 101
Fixed: Temperature, K = 298.15
Property: Viscosity, Pa*s (Liquid); method: Capillary tube (Ostwald; Ubbelohde) method
Molality, mol/kg of glycyl-l-glutamine	Viscosity, Pa*s	uncertainty
.05	.000913	.000001
.1	.000937	.000001
.15	.00096	.000001
.2	.000985	.000001

System: water + L-alanyl-L-glutamine; phases: Liquid
Fixed: Pressure, kPa = 101
Fixed: Temperature, K = 298.15
Property: Viscosity, Pa*s (Liquid); method: Capillary tube (Ostwald; Ubbelohde) method
Molality, mol/kg of L-alanyl-L-glutamine	Viscosity, Pa*s	uncertainty
.05	.000919	.000001
.1	.000948	.000001
.15	.000978	.000001
.2	.001009	.000001
