Measured thermophysical data. Isobaric vapor-liquid equilibrium for methanol + dimethylcarbonate + phosphoric-based ionic liquids
Source: Fluid Phase Equilib., 2013, 10.1016/j.fluid.2013.05.021
Compound 1: methanol, CH4O
Compound 2: dimethyl carbonate, C3H6O3
Compound 3: 1,3-dimethylimidazolium dimethylphosphate, C7H15N2O4P
Compound 4: 1-ethyl-3-methylimidazolium diethylphosphate, C10H21N2O4P

System: methanol + 1,3-dimethylimidazolium dimethylphosphate; phases: Liquid, Gas
Fixed: Pressure, kPa = 101.3
Property: Boiling temperature at pressure P, K (Liquid); method: Ebulliometric method (Recirculating still)
Mole fraction of 1,3-dimethylimidazolium dimethylphosphate	Boiling temperature at pressure P, K	uncertainty
.032	339.1	.1
.035	339.4	.1
.039	339.7	.1
.043	339.9	.1
.047	340.3	.1
.052	340.7	.1
.059	341.4	.1
.065	342	.1
.069	342.6	.1
.077	343.5	.1
.085	344.4	.1
.091	345	.1
.1	346.3	.1
.107	347.1	.1
.111	347.8	.1
.121	349	.1
.126	349.7	.1
.129	350.1	.1
.135	351	.1
.138	351.3	.1
.143	352	.1
.152	353.2	.1
.164	354.8	.1
.174	356.2	.1
.182	357.4	.1
.192	358.7	.1
.204	360.5	.1
.219	362.7	.1
.227	363.9	.1
.23	364.4	.1
.235	365	.1
.244	366.3	.1
.251	367.7	.1
.255	368.5	.1
.273	370.9	.1

System: dimethyl carbonate + 1,3-dimethylimidazolium dimethylphosphate; phases: Liquid, Gas
Fixed: Pressure, kPa = 101.3
Property: Boiling temperature at pressure P, K (Liquid); method: Ebulliometric method (Recirculating still)
Mole fraction of 1,3-dimethylimidazolium dimethylphosphate	Boiling temperature at pressure P, K	uncertainty
.03	362.7	.1
.034	362.6	.1
.039	362.5	.1
.044	362.4	.1
.048	362.4	.1
.052	362.4	.1
.059	362.3	.1
.062	362.3	.1
.074	362.3	.1
.091	362.3	.1
.107	362.3	.1
.121	362.2	.1
.137	362.2	.1
.145	362.1	.1
.15	362.1	.1
.166	362.1	.1
.169	362.1	.1
.172	362.2	.1
.181	362.2	.1
.193	362.3	.1
.205	362.4	.1
.221	362.5	.1
.237	362.6	.1
.255	362.6	.1
.273	362.8	.1
.289	362.9	.1
.308	363.1	.1
.328	363.7	.1
.339	363.8	.1
.363	364.5	.1
.377	364.8	.1
.407	365.9	.1

System: methanol + 1-ethyl-3-methylimidazolium diethylphosphate; phases: Liquid, Gas
Fixed: Pressure, kPa = 101.3
Property: Boiling temperature at pressure P, K (Liquid); method: Ebulliometric method (Recirculating still)
Mole fraction of 1-ethyl-3-methylimidazolium diethylphosphate	Boiling temperature at pressure P, K	uncertainty
.024	338.7	.1
.029	339.1	.1
.033	339.3	.1
.037	339.7	.1
.042	340.1	.1
.048	340.6	.1
.053	341	.1
.058	341.6	.1
.062	342	.1
.066	342.5	.1
.073	343.3	.1
.08	343.9	.1
.086	344.4	.1
.091	345	.1
.093	345.5	.1
.098	346.2	.1
.105	347	.1
.112	348	.1
.116	348.6	.1
.122	349.5	.1
.127	350.3	.1
.134	351.2	.1
.141	352.1	.1
.145	352.8	.1
.151	353.8	.1
.157	354.7	.1
.166	356.1	.1
.172	357.1	.1
.18	358.4	.1
.188	359.8	.1
.192	360.2	.1
.199	361.1	.1
.202	361.9	.1
.208	362.9	.1
.213	363.8	.1
.232	366.9	.1
.257	371.1	.1

System: dimethyl carbonate + 1-ethyl-3-methylimidazolium diethylphosphate; phases: Liquid, Gas
Fixed: Pressure, kPa = 101.3
Property: Boiling temperature at pressure P, K (Liquid); method: Ebulliometric method (Recirculating still)
Mole fraction of 1-ethyl-3-methylimidazolium diethylphosphate	Boiling temperature at pressure P, K	uncertainty
.034	363.2	.1
.038	363.1	.1
.04	363	.1
.043	362.9	.1
.047	362.8	.1
.058	362.6	.1
.064	362.5	.1
.073	362.4	.1
.082	362.3	.1
.092	362.4	.1
.108	362.4	.1
.116	362.4	.1
.125	362.4	.1
.131	362.4	.1
.141	362.4	.1
.156	362.5	.1
.169	362.5	.1
.184	362.5	.1
.195	362.5	.1
.208	362.6	.1
.229	362.8	.1
.253	363.4	.1
.277	363.8	.1
.287	364.2	.1
.297	364.5	.1
.314	365.1	.1
.327	365.4	.1
.339	365.9	.1

System: methanol + dimethyl carbonate + 1,3-dimethylimidazolium dimethylphosphate; phases: Liquid, Gas
Fixed: Pressure, kPa = 101.3
Property: Boiling temperature at pressure P, K (Liquid); method: Ebulliometric method (Recirculating still)
Mole fraction of 1,3-dimethylimidazolium dimethylphosphate	Solvent: Mole fraction of methanol	Boiling temperature at pressure P, K	uncertainty
.051	.052	361.4	.1
.05	.098	358.8	.1
.05	.192	354.1	.1
.049	.292	350.2	.1
.048	.398	346.6	.1
.048	.501	344.1	.1
.048	.598	342.2	.1
.049	.699	340.8	.1
.05	.802	339.9	.1
.05	.895	339.8	.1
.05	.935	340.3	.1
.15	.111	362.6	.1
.149	.191	360.8	.1
.15	.264	358.9	.1
.151	.338	357.3	.1
.151	.429	355.5	.1
.149	.532	353.4	.1
.148	.638	351.9	.1
.15	.74	351.1	.1
.148	.822	350.5	.1
.149	.907	350.9	.1
.15	.942	352.1	.1
.199	.095	364.1	.1
.198	.153	363.1	.1
.2	.236	361.7	.1
.2	.328	360.3	.1
.2	.437	358.9	.1
.199	.543	357.7	.1
.202	.651	357	.1
.202	.744	357.1	.1
.203	.841	357.6	.1
.203	.918	358.7	.1
.203	.954	360.2	.1

System: methanol + dimethyl carbonate + 1-ethyl-3-methylimidazolium diethylphosphate; phases: Liquid, Gas
Fixed: Pressure, kPa = 101.3
Property: Boiling temperature at pressure P, K (Liquid); method: Ebulliometric method (Recirculating still)
Mole fraction of 1-ethyl-3-methylimidazolium diethylphosphate	Solvent: Mole fraction of methanol	Boiling temperature at pressure P, K	uncertainty
.053	.056	361.1	.1
.052	.106	358.5	.1
.05	.2	354.1	.1
.051	.289	350.3	.1
.048	.394	346.9	.1
.047	.494	344.4	.1
.048	.581	342.6	.1
.048	.687	341.2	.1
.048	.792	340.3	.1
.048	.892	340.1	.1
.048	.944	340.5	.1
.149	.097	362.2	.1
.15	.146	361.5	.1
.149	.221	360.2	.1
.152	.327	358.5	.1
.153	.425	357	.1
.15	.514	355.4	.1
.149	.615	354	.1
.15	.716	353.1	.1
.15	.802	352.9	.1
.151	.898	353.3	.1
.151	.945	354.1	.1
.208	.113	364.2	.1
.212	.21	363.5	.1
.211	.311	362.8	.1
.21	.412	362.2	.1
.209	.508	361.6	.1
.21	.611	361.1	.1
.21	.713	361.3	.1
.211	.807	361.9	.1
.211	.89	362.7	.1
.21	.957	363.9	.1
