Measured thermophysical data. Phase equilibria of three binary systems containing 2,5-dimethylthiophene and 2-ethylthiophene in hydrocarbons
Source: Fluid Phase Equilib., 2016, 10.1016/j.fluid.2015.09.030
Compound 1: ethyl alcohol, C2H6O, purity 99.7%
Compound 2: benzene, C6H6, purity 99.8%
Compound 3: 2,5-dimethylthiophene, C6H8S, purity 98.5%
Compound 4: 2-ethylthiophene, C6H8S, purity 99.0%
Compound 5: n-decane, C10H22, purity 99.0%
Compound 6: mesitylene, C9H12, purity 99.0%

System: ethyl alcohol; phases: Liquid, Gas
Property: Vapor or sublimation pressure, kPa (Liquid); method: Ebulliometric method (Recirculating still)
Temperature, K	Vapor or sublimation pressure, kPa	uncertainty
351.45	101.33	.05

System: benzene; phases: Liquid, Gas
Property: Vapor or sublimation pressure, kPa (Liquid); method: Ebulliometric method (Recirculating still)
Temperature, K	Vapor or sublimation pressure, kPa	uncertainty
353.15	101.33	.05

System: 2,5-dimethylthiophene; phases: Liquid, Gas
Property: Vapor or sublimation pressure, kPa (Liquid); method: Ebulliometric method (Recirculating still)
Temperature, K	Vapor or sublimation pressure, kPa	uncertainty
409.96	101.33	.05

System: 2-ethylthiophene; phases: Liquid, Gas
Property: Vapor or sublimation pressure, kPa (Liquid); method: Ebulliometric method (Recirculating still)
Temperature, K	Vapor or sublimation pressure, kPa	uncertainty
407.14	101.33	.05

System: n-decane; phases: Liquid, Gas
Property: Vapor or sublimation pressure, kPa (Liquid); method: Ebulliometric method (Recirculating still)
Temperature, K	Vapor or sublimation pressure, kPa	uncertainty
447.46	101.33	.05

System: mesitylene; phases: Liquid, Gas
Property: Vapor or sublimation pressure, kPa (Liquid); method: Ebulliometric method (Recirculating still)
Temperature, K	Vapor or sublimation pressure, kPa	uncertainty
437.83	101.33	.05

System: ethyl alcohol + benzene; phases: Liquid, Gas
Fixed: Pressure, kPa = 101.33
Property: Boiling temperature at pressure P, K (Liquid); method: Ebulliometric method (Recirculating still)
Mole fraction of ethyl alcohol	Boiling temperature at pressure P, K	uncertainty
1	351.45	.02
.977	349.95	.02
.953	348.45	.02
.929	347.09	.02
.913	346.55	.02
.887	345.55	.02
.867	344.77	.02
.849	344.25	.02
.831	343.77	.02
.779	343.09	.02
.742	342.5	.02
.603	341.45	.02
.43	341.19	.02
.372	341.15	.02
.272	341.41	.02
.195	341.95	.02
.105	343.55	.02
.069	345.39	.02
.055	346.65	.02
.024	349.55	.02
0	353.15	.02

System: ethyl alcohol + benzene; phases: Gas, Liquid
Fixed: Pressure, kPa = 101.33
Property: Mole fraction of ethyl alcohol (Gas); method: Chromatography
Mole fraction of ethyl alcohol	Mole fraction of ethyl alcohol	uncertainty
1	1	.001
.977	.928	.001
.953	.857	.001
.929	.792	.001
.913	.768	.001
.887	.722	.001
.867	.691	.001
.849	.667	.001
.831	.645	.001
.779	.595	.001
.742	.567	.001
.603	.506	.001
.43	.446	.001
.372	.436	.001
.272	.394	.001
.195	.368	.001
.105	.314	.001
.069	.254	.001
.055	.212	.001
.024	.121	.001
0	0	.001

System: n-decane + 2,5-dimethylthiophene; phases: Liquid, Gas
Fixed: Pressure, kPa = 101.33
Property: Boiling temperature at pressure P, K (Liquid); method: Ebulliometric method (Recirculating still)
Mole fraction of 2,5-dimethylthiophene	Boiling temperature at pressure P, K	uncertainty
0	447.46	.02
.024	445.5	.02
.069	442.5	.02
.1337	438.6	.02
.1747	436.28	.02
.2026	434.73	.02
.2436	432.83	.02
.2887	430.61	.02
.347	428.29	.02
.4009	425.95	.02
.4524	424.06	.02
.573	420.4	.02
.6743	417.74	.02
.7584	415.4	.02
.8336	413.5	.02
.9133	411.5	.02
1	409.96	.02

System: n-decane + 2,5-dimethylthiophene; phases: Gas, Liquid
Fixed: Pressure, kPa = 101.33
Property: Mole fraction of 2,5-dimethylthiophene (Gas); method: Chromatography
Mole fraction of 2,5-dimethylthiophene	Mole fraction of 2,5-dimethylthiophene	uncertainty
0	0	.001
.024	.0733	.001
.069	.179	.001
.1337	.306	.001
.1747	.3707	.001
.2026	.4159	.001
.2436	.4741	.001
.2887	.5322	.001
.347	.5968	.001
.4009	.6484	.001
.4524	.6957	.001
.573	.782	.001
.6743	.8358	.001
.7584	.8854	.001
.8336	.9284	.001
.9133	.9649	.001
1	1	.001

System: n-decane + 2-ethylthiophene; phases: Liquid, Gas
Fixed: Pressure, kPa = 101.33
Property: Boiling temperature at pressure P, K (Liquid); method: Ebulliometric method (Recirculating still)
Mole fraction of 2-ethylthiophene	Boiling temperature at pressure P, K	uncertainty
0	447.46	.02
.0645	440.89	.02
.0915	438.56	.02
.1153	436.67	.02
.14	434.84	.02
.1613	433.37	.02
.1762	432.39	.02
.2055	430.58	.02
.2479	428.18	.02
.3659	422.66	.02
.4602	419.17	.02
.5084	417.62	.02
.5861	415.4	.02
.6465	413.88	.02
.7028	412.59	.02
.7776	411.03	.02
.8442	409.77	.02
.9231	408.39	.02
1	407.14	.02

System: n-decane + 2-ethylthiophene; phases: Gas, Liquid
Fixed: Pressure, kPa = 101.33
Property: Mole fraction of 2-ethylthiophene (Gas); method: Chromatography
Mole fraction of 2-ethylthiophene	Mole fraction of 2-ethylthiophene	uncertainty
0	0	.001
.0645	.2031	.001
.0915	.2697	.001
.1153	.3218	.001
.14	.3704	.001
.1613	.4084	.001
.1762	.433	.001
.2055	.4776	.001
.2479	.5343	.001
.3659	.6563	.001
.4602	.7286	.001
.5084	.7597	.001
.5861	.804	.001
.6465	.8346	.001
.7028	.861	.001
.7776	.8943	.001
.8442	.9234	.001
.9231	.9596	.001
1	1	.001

System: mesitylene + 2-ethylthiophene; phases: Liquid, Gas
Fixed: Pressure, kPa = 101.33
Property: Boiling temperature at pressure P, K (Liquid); method: Ebulliometric method (Recirculating still)
Mole fraction of 2-ethylthiophene	Boiling temperature at pressure P, K	uncertainty
0	437.83	.02
.0273	435.7	.02
.0671	432.87	.02
.0908	431.34	.02
.1149	429.87	.02
.1738	426.66	.02
.1932	425.71	.02
.2394	423.79	.02
.322	420.38	.02
.386	418.26	.02
.4315	416.92	.02
.4533	416.33	.02
.586	413.31	.02
.6259	412.41	.02
.6646	411.69	.02
.7072	410.96	.02
.7736	409.91	.02
.8461	408.89	.02
.9186	407.99	.02
.9711	407.42	.02
1	407.14	.02

System: mesitylene + 2-ethylthiophene; phases: Gas, Liquid
Fixed: Pressure, kPa = 101.33
Property: Mole fraction of 2-ethylthiophene (Gas); method: Chromatography
Mole fraction of 2-ethylthiophene	Mole fraction of 2-ethylthiophene	uncertainty
0	0	.001
.0273	.0795	.001
.0671	.1796	.001
.0908	.2317	.001
.1149	.2799	.001
.1738	.381	.001
.1932	.41	.001
.2394	.4741	.001
.322	.5637	.001
.386	.6221	.001
.4315	.6586	.001
.4533	.6749	.001
.586	.7646	.001
.6259	.7845	.001
.6646	.8061	.001
.7072	.8291	.001
.7736	.8644	.001
.8461	.9036	.001
.9186	.9455	.001
.9711	.9794	.001
1	1	.001
