Measured thermophysical data. Liquid-liquid equilibria for the extraction of furfural from aqueous solution using different solvents
Source: Fluid Phase Equilib., 2016, 10.1016/j.fluid.2016.06.040
Compound 1: water, H2O, purity 99.91%
Compound 2: furfural, C5H4O2, purity 99.0%
Compound 3: para-xylene, C8H10, purity 99.0%
Compound 4: toluene, C7H8, purity 99.5%
Compound 5: methylisobutylcarbinol, C6H14O, purity 99.0%
Compound 6: benzyl alcohol, C7H8O, purity 99.0%
Compound 7: acetophenone, C8H8O, purity 99.5%

System: furfural + para-xylene + water; phases: Liquid mixture 2, Liquid mixture 1
Property: Mole fraction of para-xylene (Liquid mixture 2); method: Chromatography
Property: Mole fraction of furfural (Liquid mixture 1); method: Chromatography
Property: Mole fraction of para-xylene (Liquid mixture 1); method: Chromatography
Temperature, K	Pressure, kPa	Mole fraction of furfural	Mole fraction of para-xylene	uncertainty	Mole fraction of furfural	uncertainty	Mole fraction of para-xylene	uncertainty
298.15	101	.0005	.0001	.003	.0107	.003	.9837	.003
323.15	101	.0011	.0002	.003	.027	.003	.962	.003
323.15	101	.0022	.0002	.003	.0577	.003	.9291	.003
323.15	101	.0033	.0004	.003	.0887	.003	.8972	.003
323.15	101	.0042	.0004	.003	.119	.003	.8659	.003
323.15	101	.0051	.0006	.003	.151	.003	.8327	.003
323.15	101	.0059	.0004	.003	.1828	.003	.8004	.003
323.15	101	.0066	.0004	.003	.2157	.003	.7668	.003
298.15	101	.0009	.0001	.003	.0216	.003	.9724	.003
298.15	101	.0016	.0001	.003	.041	.003	.9523	.003
298.15	101	.0024	.0001	.003	.0616	.003	.9313	.003
298.15	101	.0031	.0001	.003	.0839	.003	.9089	.003
298.15	101	.0038	.0001	.003	.1052	.003	.8867	.003
298.15	101	.0044	.0001	.003	.1284	.003	.8637	.003
298.15	101	.0053	.0001	.003	.1641	.003	.8275	.003
323.15	101	.0003	.0002	.003	.007	.003	.9852	.003

System: furfural + toluene + water; phases: Liquid mixture 2, Liquid mixture 1
Property: Mole fraction of toluene (Liquid mixture 2); method: Chromatography
Property: Mole fraction of furfural (Liquid mixture 1); method: Chromatography
Property: Mole fraction of toluene (Liquid mixture 1); method: Chromatography
Temperature, K	Pressure, kPa	Mole fraction of furfural	Mole fraction of toluene	uncertainty	Mole fraction of furfural	uncertainty	Mole fraction of toluene	uncertainty
298.15	101	.0003	.0002	.003	.0093	.003	.9839	.003
323.15	101	.0007	.0006	.003	.0196	.003	.9671	.003
323.15	101	.0014	.0006	.003	.0413	.003	.9431	.003
323.15	101	.002	.0006	.003	.0638	.003	.922	.003
323.15	101	.0027	.0006	.003	.0869	.003	.8984	.003
323.15	101	.0033	.0007	.003	.1118	.003	.8732	.003
323.15	101	.004	.0005	.003	.1352	.003	.8474	.003
323.15	101	.0048	.0006	.003	.1718	.003	.8112	.003
298.15	101	.0007	.0003	.003	.02	.003	.973	.003
298.15	101	.0014	.0003	.003	.0413	.003	.951	.003
298.15	101	.0021	.0003	.003	.0642	.003	.9274	.003
298.15	101	.0026	.0003	.003	.0876	.003	.9035	.003
298.15	101	.0032	.0003	.003	.1112	.003	.8795	.003
298.15	101	.0038	.0004	.003	.134	.003	.8563	.003
298.15	101	.0046	.0003	.003	.1744	.003	.8158	.003
323.15	101	.0003	.0005	.003	.0094	.003	.9791	.003

System: furfural + methylisobutylcarbinol + water; phases: Liquid mixture 2, Liquid mixture 1
Property: Mole fraction of methylisobutylcarbinol (Liquid mixture 2); method: Chromatography
Property: Mole fraction of furfural (Liquid mixture 1); method: Chromatography
Property: Mole fraction of methylisobutylcarbinol (Liquid mixture 1); method: Chromatography
Temperature, K	Pressure, kPa	Mole fraction of furfural	Mole fraction of methylisobutylcarbinol	uncertainty	Mole fraction of furfural	uncertainty	Mole fraction of methylisobutylcarbinol	uncertainty
298.15	101	.0005	.0031	.003	.008	.003	.7244	.003
298.15	101	.001	.0033	.003	.0163	.003	.7086	.003
298.15	101	.0021	.0034	.003	.0343	.003	.687	.003
298.15	101	.0031	.0034	.003	.0528	.003	.6658	.003
298.15	101	.004	.0037	.003	.0712	.003	.641	.003
298.15	101	.005	.004	.003	.09	.003	.6144	.003
298.15	101	.0058	.0039	.003	.1084	.003	.5906	.003
298.15	101	.007	.0046	.003	.1367	.003	.5592	.003

System: furfural + benzyl alcohol + water; phases: Liquid mixture 2, Liquid mixture 1
Property: Mole fraction of benzyl alcohol (Liquid mixture 2); method: Chromatography
Property: Mole fraction of furfural (Liquid mixture 1); method: Chromatography
Property: Mole fraction of benzyl alcohol (Liquid mixture 1); method: Chromatography
Temperature, K	Pressure, kPa	Mole fraction of furfural	Mole fraction of benzyl alcohol	uncertainty	Mole fraction of furfural	uncertainty	Mole fraction of benzyl alcohol	uncertainty
323.15	101	.0005	.0232	.003	.008	.003	.6011	.003
323.15	101	.001	.0245	.003	.0155	.003	.592	.003
323.15	101	.0014	.0246	.003	.0227	.003	.5862	.003
323.15	101	.0023	.0241	.003	.0377	.003	.5688	.003
323.15	101	.0032	.0232	.003	.0526	.003	.5503	.003
323.15	101	.0041	.023	.003	.0672	.003	.5339	.003
323.15	101	.0054	.0214	.003	.0899	.003	.513	.003
323.15	101	.0065	.0198	.003	.1103	.003	.4815	.003

System: furfural + acetophenone + water; phases: Liquid mixture 2, Liquid mixture 1
Property: Mole fraction of acetophenone (Liquid mixture 2); method: Chromatography
Property: Mole fraction of furfural (Liquid mixture 1); method: Chromatography
Property: Mole fraction of acetophenone (Liquid mixture 1); method: Chromatography
Temperature, K	Pressure, kPa	Mole fraction of furfural	Mole fraction of acetophenone	uncertainty	Mole fraction of furfural	uncertainty	Mole fraction of acetophenone	uncertainty
323.15	101	.0002	.0037	.003	.0115	.003	.868	.003
323.15	101	.0005	.0039	.003	.0236	.003	.8516	.003
323.15	101	.0009	.0037	.003	.0482	.003	.825	.003
323.15	101	.0014	.0036	.003	.0717	.003	.7946	.003
323.15	101	.0019	.0035	.003	.0947	.003	.7702	.003
323.15	101	.0023	.0035	.003	.1164	.003	.7431	.003
323.15	101	.0028	.0035	.003	.1388	.003	.7121	.003
323.15	101	.0035	.0037	.003	.1717	.003	.6758	.003
