Measured thermophysical data. Experimental study of CO2 absorption in aqueous cholinium-based ionic liquids
Source: Fluid Phase Equilib., 2017, 10.1016/j.fluid.2017.04.001
Compound 1: 2-hydroxy-N,N,N-trimethylethanaminium glycinate, C7H18N2O3, purity 99.99%
Compound 2: 2-hydroxy-N,N,N-trimethylethanaminium L-alaninate, C8H20N2O3, purity 99.99%
Compound 3: 2-hydroxy-N,N,N-trimethylethanaminiume L-prolinate, C10H22N2O3, purity 99.99%
Compound 4: carbon dioxide, CO2
Compound 5: water, H2O, purity 99.8%

System: carbon dioxide + water; phases: Liquid, Gas
Fixed: Temperature, K = 308.2
Property: Mole fraction of carbon dioxide (Liquid); method: Static pressure
Pressure, kPa	Mole fraction of carbon dioxide	uncertainty
456	.00191	
726	.00329	
945	.00454	
1371	.00642	
1624	.00751	

System: carbon dioxide + water + 2-hydroxy-N,N,N-trimethylethanaminium glycinate; phases: Liquid, Gas
Fixed: Temperature, K = 308.2
Property: Molality, mol/kg of carbon dioxide (Liquid); method: Static pressure
Solvent: Mass fraction of 2-hydroxy-N,N,N-trimethylethanaminium glycinate	Pressure, kPa	Molality, mol/kg of carbon dioxide	uncertainty
.05	86	.21	
.05	233	.247	
.05	326	.299	
.05	432	.321	
.05	627	.387	
.05	1021	.495	
.05	1388	.601	
.1	82	.363	
.1	226	.416	
.1	333	.458	
.1	488	.509	
.1	670	.584	
.1	918	.676	
.1	1166	.791	
.2	41	.638	
.2	112	.682	
.2	221	.736	
.2	375	.837	
.2	654	.962	
.2	846	1.06	
.2	1224	1.24	
.3	21	.907	
.3	100	.974	
.3	184	1.025	
.3	377	1.193	
.3	571	1.286	
.3	958	1.454	
.3	1411	1.717	

System: carbon dioxide + water + 2-hydroxy-N,N,N-trimethylethanaminium glycinate; phases: Liquid, Gas
Property: Molality, mol/kg of carbon dioxide (Liquid); method: Static pressure
Temperature, K	Solvent: Mass fraction of 2-hydroxy-N,N,N-trimethylethanaminium glycinate	Pressure, kPa	Molality, mol/kg of carbon dioxide	uncertainty
318.2	.05	74	.178	
318.2	.05	111	.189	
318.2	.05	222	.223	
318.2	.05	365	.278	
318.2	.05	621	.355	
318.2	.05	984	.444	
318.2	.05	1388	.51	
318.2	.1	64	.327	
318.2	.1	131	.347	
318.2	.1	242	.378	
318.2	.1	309	.412	
318.2	.1	639	.485	
318.2	.1	1017	.575	
318.2	.1	1166	.679	
318.2	.2	34	.573	
318.2	.2	111	.617	
318.2	.2	222	.682	
318.2	.2	369	.765	
318.2	.2	621	.83	
318.2	.2	979	.993	
318.2	.2	1224	1.106	
318.2	.3	36	.817	
318.2	.3	140	.921	
318.2	.3	242	.971	
318.2	.3	332	1.047	
318.2	.3	564	1.183	
318.2	.3	974	1.375	
318.2	.3	1421	1.549	
328.2	.05	63	.168	
328.2	.05	115	.181	
328.2	.05	246	.207	
328.2	.05	332	.218	
328.2	.05	603	.287	
328.2	.05	970	.366	
328.2	.05	1397	.44	
328.2	.1	72	.276	
328.2	.1	120	.287	
328.2	.1	230	.31	
328.2	.1	307	.336	
328.2	.1	594	.386	
328.2	.1	936	.458	
328.2	.1	1381	.552	
328.2	.2	43	.529	
328.2	.2	115	.572	
328.2	.2	246	.59	
328.2	.2	344	.643	
328.2	.2	611	.699	
328.2	.2	986	.783	
328.2	.2	1474	.892	
328.2	.3	46	.725	
328.2	.3	169	.794	
328.2	.3	262	.846	
328.2	.3	341	.89	
328.2	.3	598	1.015	
328.2	.3	959	1.121	
328.2	.3	1489	1.288	

System: carbon dioxide + water + 2-hydroxy-N,N,N-trimethylethanaminium glycinate; phases: Liquid
Fixed: Pressure, kPa = 101
Fixed: Temperature, K = 308.2
Property: Viscosity, Pa*s (Liquid); method: Cone and plate viscometry
Solvent: Mass fraction of 2-hydroxy-N,N,N-trimethylethanaminium glycinate	Molality, mol/kg of carbon dioxide	Viscosity, Pa*s	uncertainty
.05	.601	.00097	
.1	.525	.00123	
.2	.467	.00148	
.3	.791	.00222	

System: carbon dioxide + water + 2-hydroxy-N,N,N-trimethylethanaminium L-alaninate; phases: Liquid, Gas
Fixed: Temperature, K = 308.2
Property: Molality, mol/kg of carbon dioxide (Liquid); method: Static pressure
Solvent: Mass fraction of 2-hydroxy-N,N,N-trimethylethanaminium L-alaninate	Pressure, kPa	Molality, mol/kg of carbon dioxide	uncertainty
.05	84	.191	
.05	187	.226	
.05	265	.259	
.05	342	.273	
.05	613	.343	
.05	1006	.462	
.05	1378	.525	
.1	75	.332	
.1	167	.376	
.1	276	.409	
.1	474	.468	
.1	681	.578	
.1	976	.66	
.1	1291	.749	
.2	40	.578	
.2	148	.64	
.2	266	.69	
.2	415	.785	
.2	621	.869	
.2	1017	1.033	
.2	1398	1.172	
.3	33	.85	
.3	134	.925	
.3	220	.956	
.3	341	1.072	
.3	603	1.189	
.3	999	1.308	
.3	1495	1.444	

System: carbon dioxide + water + 2-hydroxy-N,N,N-trimethylethanaminium L-alaninate; phases: Liquid
Fixed: Pressure, kPa = 101
Fixed: Temperature, K = 308.2
Property: Viscosity, Pa*s (Liquid); method: Cone and plate viscometry
Solvent: Mass fraction of 2-hydroxy-N,N,N-trimethylethanaminium L-alaninate	Molality, mol/kg of carbon dioxide	Viscosity, Pa*s	uncertainty
.05	.749	.00101	
.1	.75	.00126	
.2	1.24	.0015	
.3	1.172	.00236	

System: carbon dioxide + water + 2-hydroxy-N,N,N-trimethylethanaminiume L-prolinate; phases: Liquid, Gas
Fixed: Temperature, K = 308.2
Property: Molality, mol/kg of carbon dioxide (Liquid); method: Static pressure
Solvent: Mass fraction of 2-hydroxy-N,N,N-trimethylethanaminiume L-prolinate	Pressure, kPa	Molality, mol/kg of carbon dioxide	uncertainty
.05	83	.165	
.05	212	.197	
.05	285	.23	
.05	411	.259	
.05	527	.281	
.05	862	.337	
.05	1382	.467	
.1	57	.277	
.1	144	.314	
.1	221	.332	
.1	370	.411	
.1	611	.463	
.1	992	.59	
.1	1432	.75	
.2	42	.503	
.2	199	.596	
.2	328	.653	
.2	465	.705	
.2	605	.74	
.2	992	.904	
.2	1441	1.143	
.3	28	.747	
.3	139	.828	
.3	263	.885	
.3	353	.921	
.3	548	.985	
.3	969	1.153	
.3	1505	1.404	

System: carbon dioxide + water + 2-hydroxy-N,N,N-trimethylethanaminiume L-prolinate; phases: Liquid
Fixed: Pressure, kPa = 101
Fixed: Temperature, K = 308.2
Property: Viscosity, Pa*s (Liquid); method: Cone and plate viscometry
Solvent: Mass fraction of 2-hydroxy-N,N,N-trimethylethanaminiume L-prolinate	Molality, mol/kg of carbon dioxide	Viscosity, Pa*s	uncertainty
.05	1.143	.00105	
.1	1.717	.00132	
.2	1.444	.00158	
.3	1.404	.00242	

System: water + 2-hydroxy-N,N,N-trimethylethanaminium glycinate; phases: Liquid
Fixed: Pressure, kPa = 101
Fixed: Temperature, K = 308.2
Property: Viscosity, Pa*s (Liquid); method: Cone and plate viscometry
Mass fraction of 2-hydroxy-N,N,N-trimethylethanaminium glycinate	Viscosity, Pa*s	uncertainty
.05	.00085	
.1	.00096	
.2	.00124	
.3	.0017	

System: water + 2-hydroxy-N,N,N-trimethylethanaminium L-alaninate; phases: Liquid
Fixed: Pressure, kPa = 101
Fixed: Temperature, K = 308.2
Property: Viscosity, Pa*s (Liquid); method: Cone and plate viscometry
Mass fraction of 2-hydroxy-N,N,N-trimethylethanaminium L-alaninate	Viscosity, Pa*s	uncertainty
.05	.00087	
.1	.00098	
.2	.00132	
.3	.00192	

System: water + 2-hydroxy-N,N,N-trimethylethanaminiume L-prolinate; phases: Liquid
Fixed: Pressure, kPa = 101
Fixed: Temperature, K = 308.2
Property: Viscosity, Pa*s (Liquid); method: Cone and plate viscometry
Mass fraction of 2-hydroxy-N,N,N-trimethylethanaminiume L-prolinate	Viscosity, Pa*s	uncertainty
.05	.00089	
.1	.00106	
.2	.00149	
.3	.0022	
