Measured thermophysical data. Solubility of decanedioic acid in binary solvent mixtures
Source: Fluid Phase Equilib., 2011, 10.1016/j.fluid.2011.02.018
Compound 1: 1,10-decanedioic acid, C10H18O4, purity 99.5%
Compound 2: ethanol, C2H6O, purity 99.7%
Compound 3: cyclohexane, C6H12, purity 99.5%
Compound 4: heptane, C7H16, purity 98.5%
Compound 5: 1,2-ethanediol, C2H6O2, purity 99.2%
Compound 6: water, H2O, purity 99.8%

System: ethanol + cyclohexane + 1,10-decanedioic acid; phases: Liquid, Crystal
Fixed: Pressure, kPa = 101
Property: Mole fraction of ethanol (Liquid); method: Laser Monitoring System
Solvent: Mole fraction of ethanol	Temperature, K	Mole fraction of ethanol	uncertainty
.5005	291.32	.005927	.000005927
.5005	294.83	.007119	.000007119
.5005	298.21	.009003	.000009003
.5005	302.94	.01187	.00001187
.5005	304.77	.01301	.00001301
.5005	308.79	.01525	.00001525
.5005	309.06	.01503	.00001503
.5005	311.37	.01717	.00001717
.5005	313.76	.02	.00002
.5005	316.68	.02361	.00002361
.5005	321	.0278	.0000278
.5005	323.22	.03049	.00003049
.5005	325.28	.03404	.00003404
.5005	328.98	.03986	.00003986
.5005	332	.04747	.00004747
.5005	335.59	.05615	.00005615
.5005	339.7	.06502	.00006502
.65	292.16	.007124	.000007124
.65	294.54	.009101	.000009101
.65	298.07	.01205	.00001205
.65	302.93	.01574	.00001574
.65	307.67	.01986	.00001986
.65	311.07	.02439	.00002439
.65	315	.02937	.00002937
.65	318.7	.03457	.00003457
.65	322.02	.0402	.0000402
.65	325.21	.04634	.00004634
.65	328.69	.0536	.0000536
.65	332.01	.06115	.00006115
.65	335.09	.06929	.00006929
.65	338.56	.07831	.00007831
.65	341.63	.08722	.00008722
.8009	297.21	.0163	.0000163
.8009	301.12	.01969	.00001969
.8009	303.22	.02317	.00002317
.8009	306.83	.02511	.00002511
.8009	308.09	.02707	.00002707
.8009	311.17	.03075	.00003075
.8009	313.95	.0347	.0000347
.8009	316.57	.03952	.00003952
.8009	320.67	.04663	.00004663
.8009	323.9	.05313	.00005313
.8009	326.92	.06151	.00006151
.8009	330.11	.0716	.0000716
.8009	333.58	.08333	.00008333
.8009	338.19	.09729	.00009729
.8009	341.81	.1102	.0001102
.8009	345.11	.1236	.0001236
.8501	293.9	.01437	.00001437
.8501	298.62	.01808	.00001808
.8501	301.73	.02232	.00002232
.8501	305.94	.0268	.0000268
.8501	309.89	.03161	.00003161
.8501	313.24	.03662	.00003662
.8501	316.27	.04211	.00004211
.8501	319.98	.04816	.00004816
.8501	323.67	.05487	.00005487
.8501	324.65	.0573	.0000573
.8501	326.38	.06154	.00006154
.8501	327.6	.06523	.00006523
.8501	330.52	.07427	.00007427
.8501	334.17	.08645	.00008645
.8501	338.13	.09943	.00009943
.8501	341.71	.1118	.0001118
.8501	344.2	.1233	.0001233
.8998	301.77	.02221	.00002221
.8998	308.02	.02983	.00002983
.8998	312.02	.0351	.0000351
.8998	314.94	.04019	.00004019
.8998	324.74	.0599	.0000599
.8998	327.35	.06694	.00006694
.9499	293.2	.01404	.00001404
.9499	297.63	.01814	.00001814
.9499	298.77	.01974	.00001974
.9499	298.97	.0199	.0000199
.9499	300.94	.02216	.00002216
.9499	303.17	.02457	.00002457
.9499	305.24	.02715	.00002715
.9499	307.67	.0296	.0000296
.9499	310.5	.03436	.00003436
.9499	313.73	.03943	.00003943
.9499	316.35	.04446	.00004446
.9499	318.83	.04955	.00004955
.9499	319.05	.04864	.00004864
.9499	320.7	.05405	.00005405
.9499	323.27	.06008	.00006008
.9499	326.4	.0664	.0000664
.9499	328.41	.07196	.00007196
.9499	329.92	.07719	.00007719
.9499	332.55	.08534	.00008534
.9499	335.7	.09538	.00009538
.9499	338.01	.1044	.0001044
.9499	341.24	.1185	.0001185
.9499	345.65	.1349	.0001349
.9499	347.97	.1486	.0001486
.9499	350.2	.1613	.0001613

System: ethanol + 1,10-decanedioic acid + heptane; phases: Liquid, Crystal
Fixed: Pressure, kPa = 101
Property: Mole fraction of 1,10-decanedioic acid (Liquid); method: Laser Monitoring System
Solvent: Mole fraction of ethanol	Temperature, K	Mole fraction of 1,10-decanedioic acid	uncertainty
.6003	293.91	.005747	.000005747
.6003	297.09	.007394	.000007394
.6003	300.04	.009041	.000009041
.6003	304.53	.01108	.00001108
.6003	306.26	.01227	.00001227
.6003	309.03	.01408	.00001408
.6003	310.87	.01514	.00001514
.6003	314.1	.01753	.00001753
.6003	318.3	.02083	.00002083
.6003	320.86	.02399	.00002399
.6003	321.7	.02415	.00002415
.6003	323.6	.02728	.00002728
.6003	325.51	.03072	.00003072
.6003	328.53	.03622	.00003622
.6003	331.99	.04247	.00004247
.6003	336	.04958	.00004958
.6003	339.86	.05756	.00005756
.6003	341.8	.06508	.00006508
.6003	344.75	.07541	.00007541
.6991	297.76	.01075	.00001075
.6991	303.44	.01436	.00001436
.6991	308.47	.01816	.00001816
.6991	313.75	.0229	.0000229
.6991	316.53	.02625	.00002625
.6991	319.8	.03015	.00003015
.6991	322.5	.03459	.00003459
.6991	325.46	.03982	.00003982
.6991	328.78	.04596	.00004596
.6991	332.13	.05268	.00005268
.6991	335.2	.0598	.0000598
.6991	338.5	.06766	.00006766
.6991	341.13	.076	.000076
.6991	344.45	.08581	.00008581
.6991	347.16	.09764	.00009764
.8004	296.66	.01305	.00001305
.8004	302.16	.01707	.00001707
.8004	306.02	.02054	.00002054
.8004	309.35	.02438	.00002438
.8004	313.86	.03	.00003
.8004	317.69	.03533	.00003533
.8004	320.49	.04058	.00004058
.8004	324.29	.04739	.00004739
.8004	327.94	.05661	.00005661
.8004	331.96	.06661	.00006661
.8004	335.8	.07773	.00007773
.8004	339.33	.09016	.00009016
.8004	343.06	.1039	.0001039
.8004	346.52	.1191	.0001191
.9001	293.24	.01327	.00001327
.9001	299.76	.01855	.00001855
.9001	302.76	.02138	.00002138
.9001	309.3	.02896	.00002896
.9001	313.4	.03441	.00003441
.9001	315.5	.0387	.0000387
.9001	319.06	.04474	.00004474
.9001	323.87	.05463	.00005463
.9001	327.41	.06277	.00006277
.9001	330	.07067	.00007067
.9001	333.86	.08243	.00008243
.9001	338.2	.09711	.00009711
.9001	343.04	.1163	.0001163
.9001	347.4	.135	.000135
.9001	351.42	.1546	.0001546
.9599	294.35	.01409	.00001409
.9599	300.69	.02052	.00002052
.9599	304.69	.02484	.00002484
.9599	308.02	.02917	.00002917
.9599	311.97	.03539	.00003539
.9599	315.61	.0416	.0000416
.9599	320.28	.05023	.00005023
.9599	322.46	.05493	.00005493
.9599	325.32	.06375	.00006375
.9599	328.76	.07327	.00007327
.9599	332.19	.08175	.00008175
.9599	335.63	.0936	.0000936
.9599	338.14	.1045	.0001045
.9599	340.82	.1153	.0001153
.9599	344.41	.1301	.0001301
.9599	347.8	.1503	.0001503
.9599	350.81	.1704	.0001704

System: 1,2-ethanediol + 1,10-decanedioic acid + water; phases: Liquid, Crystal
Fixed: Pressure, kPa = 101
Property: Mole fraction of 1,10-decanedioic acid (Liquid); method: Laser Monitoring System
Solvent: Mole fraction of 1,2-ethanediol	Temperature, K	Mole fraction of 1,10-decanedioic acid	uncertainty
.4009	306.82	.000186	.000000186
.4009	316.47	.000681	.000000681
.4009	322	.000998	.000000998
.4009	324.21	.001385	.000001385
.4009	324.5	.001535	.000001535
.4009	329.89	.001779	.000001779
.4009	334.81	.002815	.000002815
.4009	337.25	.003915	.000003915
.4009	340.03	.005307	.000005307
.4009	342.59	.007728	.000007728
.4009	345.22	.01054	.00001054
.4009	348.24	.01357	.00001357
.4009	350.04	.01667	.00001667
.6009	301.19	.0001932	.0000001932
.6009	305.88	.0004441	.0000004441
.6009	310.83	.0006227	.0000006227
.6009	313.96	.0008609	.0000008609
.6009	317.26	.001349	.000001349
.6009	320.06	.00193	.00000193
.6009	320.56	.002624	.000002624
.6009	323.11	.003483	.000003483
.6009	326.63	.004654	.000004654
.6009	328.9	.006144	.000006144
.6009	332.1	.008036	.000008036
.6009	336.09	.01035	.00001035
.6009	338.74	.01319	.00001319
.6009	341.91	.01724	.00001724
.6009	345.6	.02279	.00002279
.6009	348.1	.02961	.00002961
.8004	298.74	.0006278	.0000006278
.8004	304.11	.0009052	.0000009052
.8004	307.23	.001275	.000001275
.8004	309.74	.001628	.000001628
.8004	312.69	.002238	.000002238
.8004	313.7	.002751	.000002751
.8004	316.05	.003164	.000003164
.8004	317.3	.003881	.000003881
.8004	320.89	.004512	.000004512
.8004	324.93	.006303	.000006303
.8004	325.37	.006145	.000006145
.8004	328.61	.007974	.000007974
.8004	331.37	.009872	.000009872
.8004	334.17	.01257	.00001257
.8004	337.29	.01733	.00001733
.8004	340.42	.02526	.00002526
.8004	345.04	.03803	.00003803
.8004	349.03	.05478	.00005478
1	304.09	.00267	.00000267
1	305.4	.002775	.000002775
1	309.1	.004703	.000004703
1	310.13	.004696	.000004696
1	311.86	.004177	.000004177
1	314.43	.006005	.000006005
1	315.86	.006899	.000006899
1	316.99	.007804	.000007804
1	319.39	.009799	.000009799
1	322.14	.01218	.00001218
1	326.36	.01479	.00001479
1	326.83	.01493	.00001493
1	327.94	.01774	.00001774
1	331.14	.02208	.00002208
1	334.87	.02777	.00002777
1	337.97	.03425	.00003425
1	341.02	.04184	.00004184
1	344.09	.05092	.00005092
1	347.49	.0621	.0000621

System: ethanol + cyclohexane; phases: Liquid, Gas
Property: Azeotropic composition: mole fraction of ethanol (Liquid); method: By X=Y
Temperature, K	Azeotropic composition: mole fraction of ethanol	uncertainty
337.95	.454	.000454

System: ethanol + cyclohexane; phases: Liquid, Gas
Property: Azeotropic composition: mole fraction of ethanol (Liquid); method: By X=Y
Pressure, kPa	Azeotropic composition: mole fraction of ethanol	uncertainty
101.325	.454	.000454

System: ethanol + heptane; phases: Liquid, Gas
Property: Azeotropic composition: mole fraction of ethanol (Liquid); method: By X=Y
Temperature, K	Azeotropic composition: mole fraction of ethanol	uncertainty
344.32	.6695	.0006695

System: ethanol + heptane; phases: Liquid, Gas
Property: Azeotropic composition: mole fraction of ethanol (Liquid); method: By X=Y
Pressure, kPa	Azeotropic composition: mole fraction of ethanol	uncertainty
101.325	.6695	.0006695

System: 1,2-ethanediol + 1,10-decanedioic acid; phases: Liquid, Crystal
Property: Mole fraction of 1,10-decanedioic acid (Liquid); method: Laser Monitoring System
Temperature, K	Pressure, kPa	Mole fraction of 1,10-decanedioic acid	uncertainty
304.09	101	.00267	.00000267
305.4	101	.002775	.000002775
309.1	101	.004703	.000004703
310.13	101	.004696	.000004696
311.86	101	.004177	.000004177
314.43	101	.006005	.000006005
315.86	101	.006899	.000006899
316.99	101	.007804	.000007804
319.39	101	.009799	.000009799
322.14	101	.01218	.00001218
326.36	101	.01479	.00001479
326.83	101	.01493	.00001493
327.94	101	.01774	.00001774
331.14	101	.02208	.00002208
334.87	101	.02777	.00002777
337.97	101	.03425	.00003425
341.02	101	.04184	.00004184
344.09	101	.05092	.00005092
347.49	101	.0621	.0000621
