Measured thermophysical data. Thermodynamic models for determination of the solid-liquid equilibrium of 2,5-thiophenedicarboxylic acid in (acetic acid + ethanol) binary solvent mixtures
Source: Fluid Phase Equilib., 2015, 10.1016/j.fluid.2015.06.007
Compound 1: 2,5-thiophenedicarboxylic acid, C6H4O4S, purity 98%
Compound 2: ethanol, C2H6O, purity 99.7%
Compound 3: acetic acid, C2H4O2, purity 99.7%

System: ethanol + acetic acid + 2,5-thiophenedicarboxylic acid; phases: Liquid, Crystal
Fixed: Pressure, kPa = 101
Property: Mole fraction of 2,5-thiophenedicarboxylic acid (Liquid); method: gravimetric method with solvent drying
Temperature, K	Solvent: Mole fraction of ethanol	Mole fraction of 2,5-thiophenedicarboxylic acid	uncertainty
283.15	0	.000843	.01
283.15	.148	.001524	.01
283.15	.296	.002963	.01
283.15	.445	.004656	.01
283.15	.595	.006181	.01
283.15	.746	.007668	.01
283.15	.898	.0097	.01
283.15	1	.013632	.01
288.15	0	.000876	.01
288.15	.148	.001801	.01
288.15	.296	.003476	.01
288.15	.445	.005382	.01
288.15	.595	.007143	.01
288.15	.746	.008907	.01
288.15	.898	.011206	.01
288.15	1	.015074	.01
293.15	0	.000921	.01
293.15	.148	.002117	.01
293.15	.296	.004069	.01
293.15	.445	.006308	.01
293.15	.595	.008292	.01
293.15	.746	.010276	.01
293.15	.898	.012929	.01
293.15	1	.016765	.01
298.15	0	.000971	.01
298.15	.148	.00253	.01
298.15	.296	.004747	.01
298.15	.445	.007272	.01
298.15	.595	.009561	.01
298.15	.746	.011893	.01
298.15	.898	.014949	.01
298.15	1	.018823	.01
303.15	0	.001036	.01
303.15	.148	.00296	.01
303.15	.296	.005537	.01
303.15	.445	.008442	.01
303.15	.595	.011041	.01
303.15	.746	.013634	.01
303.15	.898	.017242	.01
303.15	1	.021456	.01
308.15	0	.001109	.01
308.15	.148	.003443	.01
308.15	.296	.006415	.01
308.15	.445	.00969	.01
308.15	.595	.012682	.01
308.15	.746	.015705	.01
308.15	.898	.019779	.01
308.15	1	.024294	.01
313.15	0	.001227	.01
313.15	.148	.003957	.01
313.15	.296	.007381	.01
313.15	.445	.011124	.01
313.15	.595	.014509	.01
313.15	.746	.017883	.01
313.15	.898	.02262	.01
313.15	1	.027735	.01
318.15	0	.001335	.01
318.15	.148	.00458	.01
318.15	.296	.008502	.01
318.15	.445	.012728	.01
318.15	.595	.016649	.01
318.15	.746	.020467	.01
318.15	.898	.025842	.01
318.15	1	.031646	.01
323.15	0	.001493	.01
323.15	.148	.005315	.01
323.15	.296	.009781	.01
323.15	.445	.014481	.01
323.15	.595	.018931	.01
323.15	.746	.02337	.01
323.15	.898	.029389	.01
323.15	1	.03694	.01
328.15	0	.001697	.01
328.15	.148	.006121	.01
328.15	.296	.011159	.01
328.15	.445	.016458	.01
328.15	.595	.021608	.01
328.15	.746	.026657	.01
328.15	.898	.033549	.01
328.15	1	.043409	.01
