Measured thermophysical data. Solubilities of CO2 capture absorbents 2-ethoxyethyl ether, 2-butoxyethyl acetate and 2-(2-ethoxyethoxy)ethyl acetate
Source: Fluid Phase Equilib., 2014, 10.1016/j.fluid.2014.02.029
Compound 1: carbon dioxide, CO2, purity 99.999%
Compound 2: N-methyl-2-pyrrolidone, C5H9NO, purity 99%
Compound 3: 2-ethoxyethyl ether, C8H18O3, purity 98%
Compound 4: 2-butoxyethyl acetate, C8H16O3, purity 98%
Compound 5: 2-(2-ethoxyethoxy)ethyl acetate, C8H16O4, purity 99%

System: 2-butoxyethyl acetate; phases: Liquid
Property: Mass density, kg/m3 (Liquid); method: Vibrating tube method
Pressure, kPa	Temperature, K	Mass density, kg/m3	uncertainty
100	293.15	940.7	.05
100	303.15	930.89	.05
100	313.15	921.05	.05
100	323.15	911.18	.05
100	333.15	901.29	.05

System: 2-(2-ethoxyethoxy)ethyl acetate; phases: Liquid
Property: Mass density, kg/m3 (Liquid); method: Vibrating tube method
Pressure, kPa	Temperature, K	Mass density, kg/m3	uncertainty
100	293.15	1009.46	.05
100	303.15	999.19	.05
100	313.15	988.92	.05
100	323.15	978.66	.05
100	333.15	968.38	.05

System: carbon dioxide + N-methyl-2-pyrrolidone; phases: Fluid (supercritical or subcritical phases), Gas
Fixed: Temperature, K = 298.15
Property: Mole fraction of carbon dioxide (Fluid (supercritical or subcritical phases)); method: Phase equilibration
Pressure, kPa	Mole fraction of carbon dioxide	uncertainty
643.1	.0975	.0003
861	.1285	.0003
1146.3	.169	.0003
1409.7	.2064	.0003

System: 2-ethoxyethyl ether + carbon dioxide; phases: Fluid (supercritical or subcritical phases), Gas
Property: Mole fraction of carbon dioxide (Fluid (supercritical or subcritical phases)); method: Phase equilibration
Temperature, K	Pressure, kPa	Mole fraction of carbon dioxide	uncertainty
293.15	75.4	.018	.0001
293.15	216.8	.0517	.0001
293.15	436.3	.1041	.0002
293.15	674.1	.1572	.0002
293.15	823.6	.1966	.0003
293.15	1063.4	.2541	.0003
293.15	1245.3	.297	.0004
303.15	68.4	.0139	.0001
303.15	234.3	.0478	.0001
303.15	457.2	.0932	.0002
303.15	634.2	.1274	.0002
303.15	823.6	.1663	.0002
303.15	1032.3	.2124	.0003
303.15	1273.4	.2589	.0003
313.15	87.3	.0154	.0001
313.15	258	.0455	.0001
313.15	437.4	.0765	.0002
313.15	662.3	.1172	.0002

System: 2-butoxyethyl acetate + carbon dioxide; phases: Fluid (supercritical or subcritical phases), Gas
Property: Mole fraction of carbon dioxide (Fluid (supercritical or subcritical phases)); method: Phase equilibration
Temperature, K	Pressure, kPa	Mole fraction of carbon dioxide	uncertainty
293.15	68.4	.0167	.0001
293.15	191	.0486	.0001
293.15	440.1	.1099	.0002
293.15	625.5	.1572	.0003
293.15	845.8	.2092	.0003
293.15	1054.1	.2551	.0004
293.15	1203.3	.2921	.0004
303.15	75.1	.0159	.0001
303.15	273	.0524	.0001
303.15	455.4	.0978	.0002
303.15	661.7	.1427	.0002
303.15	845.1	.1804	.0003
303.15	1018.1	.215	.0003
303.15	1222.1	.2557	.0004
313.15	73.4	.0134	.0001
313.15	258	.043	.0001
313.15	456.1	.0843	.0002
313.15	661.8	.1234	.0002

System: 2-(2-ethoxyethoxy)ethyl acetate + carbon dioxide; phases: Fluid (supercritical or subcritical phases), Gas
Property: Mole fraction of carbon dioxide (Fluid (supercritical or subcritical phases)); method: Phase equilibration
Temperature, K	Pressure, kPa	Mole fraction of carbon dioxide	uncertainty
293.15	65.4	.0166	.0001
293.15	223.6	.0543	.0001
293.15	444.4	.1155	.0002
293.15	661.4	.1719	.0002
293.15	835.4	.2159	.0003
293.15	1021.8	.2569	.0004
293.15	1222.6	.3091	.0004
303.15	75.8	.0166	.0001
303.15	231.6	.0452	.0001
303.15	425.8	.0943	.0002
303.15	637.5	.1422	.0002
303.15	813.7	.1816	.0003
303.15	1011.5	.2203	.0003
303.15	1209.5	.2621	.0004
313.15	68.4	.013	.0001
313.15	225.4	.0385	.0001
313.15	427.9	.0847	.0002
313.15	630.3	.1227	.0002
