Measured thermophysical data. Boiling point of aqueous d-glucose and d-fructose solutions: Experimental  determination and modeling with group-contribution method
Source: Fluid Phase Equilib., 2010, 10.1016/j.fluid.2010.08.018
Compound 1: D-glucose, C6H12O6, purity 99%
Compound 2: D-fructose, C6H12O6, purity 99%
Compound 3: water, H2O, purity 99.8%

System: D-glucose + water; phases: Liquid, Gas
Property: Boiling temperature at pressure P, K (Liquid); method: Vacuum Rotary Evaporator
Pressure, kPa	Mass fraction of D-glucose	Boiling temperature at pressure P, K	uncertainty
20	.102	333.9	.2
20	.203	334.4	.2
20	.28	334.3	.2
20	.391	335	.2
20	.492	336.1	.2
20	.604	337.9	.2
26.7	.102	340.2	.2
26.7	.203	340.7	.2
26.7	.287	340.8	.2
26.7	.391	341.1	.2
26.7	.492	342.4	.2
26.7	.604	344.3	.2
33.3	.103	345.6	.2
33.3	.202	346.2	.2
33.3	.289	346.1	.2
33.3	.393	346.7	.2
33.3	.492	347.7	.2
33.3	.605	349.6	.2
40	.103	349.9	.2
40	.202	350.4	.2
40	.29	350.7	.2
40	.395	350.7	.2
40	.493	352.3	.2
40	.605	354.1	.2
46.7	.103	353.7	.2
46.7	.202	354.4	.2
46.7	.289	354	.2
46.7	.394	354.9	.2
46.7	.493	355.7	.2
46.7	.605	357.6	.2
53.3	.103	357	.2
53.3	.202	357.7	.2
53.3	.288	357.4	.2
53.3	.393	358.1	.2
53.3	.494	359.2	.2
53.3	.606	361	.2
60	.103	360	.2
60	.203	360.7	.2
60	.29	360.4	.2
60	.394	361.1	.2
60	.495	362.2	.2
60	.606	364.3	.2
66.7	.104	362.7	.2
66.7	.203	363.5	.2
66.7	.284	363.1	.2
66.7	.395	363.9	.2
66.7	.496	365	.2
66.7	.606	366.8	.2
73.3	.104	365.2	.2
73.3	.204	365.9	.2
73.3	.281	365.7	.2
73.3	.395	366.5	.2
73.3	.496	367.7	.2
73.3	.606	369.4	.2
80	.104	367.4	.2
80	.204	368.1	.2
80	.278	367.6	.2
80	.395	368.9	.2
80	.496	370.1	.2
80	.608	371.8	.2
86.7	.104	369.5	.2
86.7	.205	370.3	.2
86.7	.285	370.3	.2
86.7	.395	371.2	.2
86.7	.496	371.9	.2
86.7	.609	374.2	.2
93.6	.105	372	.2
93.6	.206	372.7	.2
93.6	.292	372.6	.2
93.6	.395	373.3	.2
93.6	.496	374.5	.2
93.6	.61	376.6	.2

System: D-fructose + water; phases: Liquid, Gas
Property: Boiling temperature at pressure P, K (Liquid); method: Vacuum Rotary Evaporator
Pressure, kPa	Mass fraction of D-fructose	Boiling temperature at pressure P, K	uncertainty
20	.103	334.1	.2
20	.206	334.5	.2
20	.309	335.2	.2
20	.409	335.5	.2
20	.512	336.5	.2
20	.61	337.9	.2
26.7	.103	340.8	.2
26.7	.207	341.2	.2
26.7	.308	341.5	.2
26.7	.409	342.1	.2
26.7	.513	343	.2
26.7	.61	344.6	.2
33.3	.103	345.8	.2
33.3	.207	346.2	.2
33.3	.306	346.7	.2
33.3	.409	347.1	.2
33.3	.514	348.2	.2
33.3	.611	349.8	.2
40	.103	350	.2
40	.208	350.6	.2
40	.307	351.1	.2
40	.409	351.4	.2
40	.515	352.5	.2
40	.611	354.2	.2
46.7	.103	353.9	.2
46.7	.209	354.4	.2
46.7	.308	355	.2
46.7	.409	355.4	.2
46.7	.516	356.4	.2
46.7	.612	358	.2
53.3	.103	357.2	.2
53.3	.209	357.8	.2
53.3	.308	358.3	.2
53.3	.411	358.5	.2
53.3	.516	359.7	.2
53.3	.612	361.4	.2
60	.103	360.1	.2
60	.209	360.7	.2
60	.308	361.2	.2
60	.412	361.7	.2
60	.515	362.8	.2
60	.612	364.7	.2
66.7	.104	362.7	.2
66.7	.209	363.4	.2
66.7	.31	364	.2
66.7	.412	364.4	.2
66.7	.515	365.5	.2
66.7	.611	367.2	.2
73.3	.104	365.3	.2
73.3	.209	366	.2
73.3	.312	366.4	.2
73.3	.412	367	.2
73.3	.516	368	.2
73.3	.611	369.9	.2
80	.104	367.7	.2
80	.21	368.2	.2
80	.312	368.7	.2
80	.41	369	.2
80	.518	370.4	.2
80	.61	372.2	.2
86.7	.104	369.8	.2
86.7	.21	370.5	.2
86.7	.312	370.8	.2
86.7	.409	371.3	.2
86.7	.519	372.8	.2
86.7	.608	374.3	.2
93.6	.104	372.1	.2
93.6	.211	372.8	.2
93.6	.312	373.2	.2
93.6	.413	374.2	.2
93.6	.52	375.1	.2
93.6	.612	376.7	.2
