Measured thermophysical data. Ternary solubility of mixed cholesteryl esters in supercritical carbon dioxide
Source: Fluid Phase Equilib., 2008, 10.1016/j.fluid.2008.07.012
Compound 1: carbon dioxide, CO2
Compound 2: cholesteryl benzoate, C34H50O2
Compound 3: cholest-5-en-3-ol (3.beta.)-, butanoate, C31H52O2

System: cholesteryl benzoate; phases: Crystal, Liquid, Air at 1 atmosphere
Property: Normal melting temperature, K (Crystal); method: DSC/DTA
Normal melting temperature, K	uncertainty
423	

System: cholest-5-en-3-ol (3.beta.)-, butanoate; phases: Crystal, Liquid, Air at 1 atmosphere
Property: Normal melting temperature, K (Crystal); method: DSC/DTA
Normal melting temperature, K	uncertainty
372	

System: carbon dioxide + cholest-5-en-3-ol (3.beta.)-, butanoate + cholesteryl benzoate; phases: Fluid (supercritical or subcritical phases), Crystal, Crystal
Property: Mole fraction of cholest-5-en-3-ol (3.beta.)-, butanoate (Fluid (supercritical or subcritical phases)); method: Chromatography
Temperature, K	Pressure, kPa	Mole fraction of cholest-5-en-3-ol (3.beta.)-, butanoate	uncertainty
308.15	12000	.000059	.000002
308.15	14000	.00009	.000003
308.15	16000	.000112	.000006
308.15	18000	.000132	.000007
308.15	21000	.000152	.000003
308.15	24000	.000189	.000008
318.15	13000	.000074	.000003
318.15	16000	.000133	.000007
318.15	18000	.00018	.00001
318.15	21000	.000234	.000012
318.15	24000	.000312	.000015
328.15	12000	.000016	.000002
328.15	14000	.000059	.000001
328.15	16000	.000109	.000004
328.15	18000	.00018	.000007
328.15	21000	.000261	.000013
328.15	24000	.00035	.000008

System: carbon dioxide + cholest-5-en-3-ol (3.beta.)-, butanoate + cholesteryl benzoate; phases: Fluid (supercritical or subcritical phases), Crystal, Crystal
Property: Mole fraction of cholesteryl benzoate (Fluid (supercritical or subcritical phases)); method: Chromatography
Temperature, K	Pressure, kPa	Mole fraction of cholesteryl benzoate	uncertainty
308.15	12000	.0000066	.0000003
308.15	14000	.0000071	.0000004
308.15	16000	.0000102	.0000002
308.15	18000	.0000156	.0000005
308.15	21000	.0000168	.0000007
308.15	24000	.0000182	.0000009
318.15	13000	.0000058	.0000002
318.15	16000	.0000132	.0000006
318.15	18000	.0000172	.0000008
318.15	21000	.0000222	.0000005
318.15	24000	.0000302	.0000012
328.15	12000	.0000012	.0000001
328.15	14000	.0000049	.0000003
328.15	16000	.0000104	.0000002
328.15	18000	.0000174	.0000011
328.15	21000	.000027	.0000007
328.15	24000	.0000398	.0000014
