Measured thermophysical data. Measurement and correlation for the solubilities of cinnarizine, pentoxifylline, and piracetam in supercritical carbon dioxide
Source: Fluid Phase Equilib., 2014, 10.1016/j.fluid.2014.01.041
Compound 1: carbon dioxide, CO2, purity 99.9%
Compound 2: piracetam, C6H10N2O2, purity 99%
Compound 3: pentoxifylline, C13H18N4O3, purity 99%
Compound 4: cinnarizine, C26H28N2, purity 99%

System: piracetam; phases: Crystal, Liquid, Air at 1 atmosphere
Property: Normal melting temperature, K (Crystal); method: DSC/DTA
Normal melting temperature, K	uncertainty
398	.1

System: pentoxifylline; phases: Crystal, Liquid, Air at 1 atmosphere
Property: Normal melting temperature, K (Crystal); method: DSC/DTA
Normal melting temperature, K	uncertainty
379	.1

System: cinnarizine; phases: Crystal, Liquid, Air at 1 atmosphere
Property: Normal melting temperature, K (Crystal); method: DSC/DTA
Normal melting temperature, K	uncertainty
395.1	.1

System: carbon dioxide + piracetam; phases: Fluid (supercritical or subcritical phases), Crystal
Property: Mole fraction of piracetam (Fluid (supercritical or subcritical phases)); method: UV/Vis spectrophotometry
Temperature, K	Pressure, kPa	Mole fraction of piracetam	uncertainty
308.15	12000	.0000124	.00000062
308.15	14040	.0000154	.00000077
308.15	15990	.0000172	.00000086
308.15	18000	.0000195	.000000975
308.15	20000	.000022	.0000011
308.15	21960	.0000227	.000001135
308.15	24000	.000023	.00000115
318.15	12010	.0000105	.000000525
318.15	13990	.0000147	.000000735
318.15	15980	.000019	.00000095
318.15	17970	.0000224	.00000112
318.15	19990	.0000243	.000001215
318.15	21970	.0000262	.00000131
318.15	24000	.0000272	.00000136
328.15	12000	.0000075	.000000375
328.15	14000	.000013	.00000065
328.15	16000	.0000207	.000001035
328.15	18000	.0000276	.00000138
328.15	20020	.0000321	.000001605
328.15	22020	.0000343	.000001715
328.15	24000	.0000373	.000001865

System: carbon dioxide + pentoxifylline; phases: Fluid (supercritical or subcritical phases), Crystal
Property: Mole fraction of pentoxifylline (Fluid (supercritical or subcritical phases)); method: UV/Vis spectrophotometry
Temperature, K	Pressure, kPa	Mole fraction of pentoxifylline	uncertainty
308.15	12000	.000226	.0000113
308.15	14000	.0003	.000015
308.15	16000	.000324	.0000162
308.15	17990	.00047	.0000235
308.15	20010	.0006	.00003
308.15	22010	.000686	.0000343
308.15	23970	.000717	.00003585
318.15	12000	.000123	.00000615
318.15	13990	.00023	.0000115
318.15	15980	.000427	.00002135
318.15	17970	.000652	.0000326
318.15	19970	.00077	.0000385
318.15	21970	.000898	.0000449
318.15	24000	.000992	.0000496
328.15	11980	.00003	.0000015
328.15	14000	.000149	.00000745
328.15	16000	.000388	.0000194
328.15	18000	.000685	.00003425
328.15	20020	.00087	.0000435
328.15	22020	.00117	.0000585
328.15	24000	.00137	.0000685

System: carbon dioxide + cinnarizine; phases: Fluid (supercritical or subcritical phases), Crystal
Property: Mole fraction of cinnarizine (Fluid (supercritical or subcritical phases)); method: UV/Vis spectrophotometry
Temperature, K	Pressure, kPa	Mole fraction of cinnarizine	uncertainty
308.15	14000	.0000131	.000000655
308.15	15990	.0000225	.000001125
308.15	17010	.0000297	.000001485
308.15	18040	.000039	.00000195
308.15	19970	.0000527	.000002635
308.15	21970	.000068	.0000034
308.15	24000	.0000941	.000004705
318.15	14030	.0000071	.000000355
318.15	16030	.0000198	.00000099
318.15	17040	.000031	.00000155
318.15	18010	.0000451	.000002255
318.15	20000	.0000756	.00000378
318.15	22030	.000105	.00000525
318.15	24000	.000134	.0000067
328.15	13970	.0000029	.000000145
328.15	16030	.0000127	.000000635
328.15	17040	.0000219	.000001095
328.15	18040	.0000387	.000001935
328.15	20000	.000076	.0000038
328.15	22050	.000147	.00000735
328.15	24000	.000205	.00001025
