Measured thermophysical data. Solubility of 1, 3, 2-dioxaphosphorinane-5,5-dimethyl -2- (2,4,6-tribromophenoxy)-2-oxide in selected solvents
Source: Fluid Phase Equilib., 2013, 10.1016/j.fluid.2013.09.023
Compound 1: 5,5-dimethyl-1,3,2-dioxaphosphorinane-2-(2,4,6- tribromophenoxy)-2-oxide, C11H12Br3O4P
Compound 2: methanol, CH4O
Compound 3: acetone, C3H6O
Compound 4: tetrahydrofuran, C4H8O
Compound 5: acetonitrile, C2H3N
Compound 6: ethanol, C2H6O
Compound 7: toluene, C7H8
Compound 8: ethyl acetate, C4H8O2
Compound 9: dichloromethane, CH2Cl2
Compound 10: trichloromethane, CHCl3
Compound 11: methyl acetate, C3H6O2

System: methanol + 5,5-dimethyl-1,3,2-dioxaphosphorinane-2-(2,4,6- tribromophenoxy)-2-oxide; phases: Liquid, Crystal
Fixed: Pressure, kPa = 101
Property: Mole fraction of 5,5-dimethyl-1,3,2-dioxaphosphorinane-2-(2,4,6- tribromophenoxy)-2-oxide (Liquid); method: Gravimetric
Temperature, K	Mole fraction of 5,5-dimethyl-1,3,2-dioxaphosphorinane-2-(2,4,6- tribromophenoxy)-2-oxide	uncertainty
293.15	.00195	.0000195
298.15	.0024	.000024
303.15	.00296	.0000296
308.15	.00354	.0000354
313.15	.00424	.0000424
323.15	.00614	.0000614
333.15	.0081	.000081

System: acetone + 5,5-dimethyl-1,3,2-dioxaphosphorinane-2-(2,4,6- tribromophenoxy)-2-oxide; phases: Liquid, Crystal
Fixed: Pressure, kPa = 101
Property: Mole fraction of 5,5-dimethyl-1,3,2-dioxaphosphorinane-2-(2,4,6- tribromophenoxy)-2-oxide (Liquid); method: Gravimetric
Temperature, K	Mole fraction of 5,5-dimethyl-1,3,2-dioxaphosphorinane-2-(2,4,6- tribromophenoxy)-2-oxide	uncertainty
293.15	.01306	.0001306
298.15	.01529	.0001529
303.15	.01709	.0001709
308.15	.01936	.0001936
313.15	.02264	.0002264
318.15	.02539	.0002539
323.15	.02951	.0002951

System: tetrahydrofuran + 5,5-dimethyl-1,3,2-dioxaphosphorinane-2-(2,4,6- tribromophenoxy)-2-oxide; phases: Liquid, Crystal
Fixed: Pressure, kPa = 101
Property: Mole fraction of 5,5-dimethyl-1,3,2-dioxaphosphorinane-2-(2,4,6- tribromophenoxy)-2-oxide (Liquid); method: Gravimetric
Temperature, K	Mole fraction of 5,5-dimethyl-1,3,2-dioxaphosphorinane-2-(2,4,6- tribromophenoxy)-2-oxide	uncertainty
293.15	.02396	.0002396
298.15	.02583	.0002583
303.15	.03027	.0003027
308.15	.03291	.0003291
313.15	.03738	.0003738
318.15	.0409	.000409
323.15	.04476	.0004476

System: acetonitrile + 5,5-dimethyl-1,3,2-dioxaphosphorinane-2-(2,4,6- tribromophenoxy)-2-oxide; phases: Liquid, Crystal
Fixed: Pressure, kPa = 101
Property: Mole fraction of 5,5-dimethyl-1,3,2-dioxaphosphorinane-2-(2,4,6- tribromophenoxy)-2-oxide (Liquid); method: Gravimetric
Temperature, K	Mole fraction of 5,5-dimethyl-1,3,2-dioxaphosphorinane-2-(2,4,6- tribromophenoxy)-2-oxide	uncertainty
293.15	.00399	.0000399
298.15	.00504	.0000504
308.15	.00755	.0000755
313.15	.00936	.0000936
323.15	.01283	.0001283
333.15	.01842	.0001842
343.15	.02645	.0002645

System: ethanol + 5,5-dimethyl-1,3,2-dioxaphosphorinane-2-(2,4,6- tribromophenoxy)-2-oxide; phases: Liquid, Crystal
Fixed: Pressure, kPa = 101
Property: Mole fraction of 5,5-dimethyl-1,3,2-dioxaphosphorinane-2-(2,4,6- tribromophenoxy)-2-oxide (Liquid); method: Gravimetric
Temperature, K	Mole fraction of 5,5-dimethyl-1,3,2-dioxaphosphorinane-2-(2,4,6- tribromophenoxy)-2-oxide	uncertainty
293.15	.0025	.000025
298.15	.00298	.0000298
303.15	.00358	.0000358
308.15	.00414	.0000414
313.15	.00465	.0000465
318.15	.00556	.0000556
323.15	.00643	.0000643
333.15	.00795	.0000795

System: toluene + 5,5-dimethyl-1,3,2-dioxaphosphorinane-2-(2,4,6- tribromophenoxy)-2-oxide; phases: Liquid, Crystal
Fixed: Pressure, kPa = 101
Property: Mole fraction of 5,5-dimethyl-1,3,2-dioxaphosphorinane-2-(2,4,6- tribromophenoxy)-2-oxide (Liquid); method: Gravimetric
Temperature, K	Mole fraction of 5,5-dimethyl-1,3,2-dioxaphosphorinane-2-(2,4,6- tribromophenoxy)-2-oxide	uncertainty
293.15	.00784	.0000784
298.15	.009	.00009
303.15	.01033	.0001033
313.15	.01446	.0001446
323.15	.01951	.0001951
333.15	.0268	.000268
343.15	.03493	.0003493

System: ethyl acetate + 5,5-dimethyl-1,3,2-dioxaphosphorinane-2-(2,4,6- tribromophenoxy)-2-oxide; phases: Liquid, Crystal
Fixed: Pressure, kPa = 101
Property: Mole fraction of 5,5-dimethyl-1,3,2-dioxaphosphorinane-2-(2,4,6- tribromophenoxy)-2-oxide (Liquid); method: Gravimetric
Temperature, K	Mole fraction of 5,5-dimethyl-1,3,2-dioxaphosphorinane-2-(2,4,6- tribromophenoxy)-2-oxide	uncertainty
293.15	.00497	.0000497
298.15	.00564	.0000564
308.15	.00748	.0000748
313.15	.00853	.0000853
318.15	.00951	.0000951
323.15	.01108	.0001108
328.15	.01266	.0001266
333.15	.01425	.0001425

System: dichloromethane + 5,5-dimethyl-1,3,2-dioxaphosphorinane-2-(2,4,6- tribromophenoxy)-2-oxide; phases: Liquid, Crystal
Fixed: Pressure, kPa = 101
Property: Mole fraction of 5,5-dimethyl-1,3,2-dioxaphosphorinane-2-(2,4,6- tribromophenoxy)-2-oxide (Liquid); method: Gravimetric
Temperature, K	Mole fraction of 5,5-dimethyl-1,3,2-dioxaphosphorinane-2-(2,4,6- tribromophenoxy)-2-oxide	uncertainty
288.15	.04918	.0004918
293.15	.05464	.0005464
298.15	.0594	.000594
303.15	.06527	.0006527
308.15	.07119	.0007119

System: trichloromethane + 5,5-dimethyl-1,3,2-dioxaphosphorinane-2-(2,4,6- tribromophenoxy)-2-oxide; phases: Liquid, Crystal
Fixed: Pressure, kPa = 101
Property: Mole fraction of 5,5-dimethyl-1,3,2-dioxaphosphorinane-2-(2,4,6- tribromophenoxy)-2-oxide (Liquid); method: Gravimetric
Temperature, K	Mole fraction of 5,5-dimethyl-1,3,2-dioxaphosphorinane-2-(2,4,6- tribromophenoxy)-2-oxide	uncertainty
288.15	.08013	.0008013
293.15	.08442	.0008442
298.15	.08815	.0008815
303.15	.09467	.0009467
308.15	.10043	.0010043
313.15	.10642	.0010642
318.15	.11274	.0011274
328.15	.12367	.0012367

System: methyl acetate + 5,5-dimethyl-1,3,2-dioxaphosphorinane-2-(2,4,6- tribromophenoxy)-2-oxide; phases: Liquid, Crystal
Fixed: Pressure, kPa = 101
Property: Mole fraction of 5,5-dimethyl-1,3,2-dioxaphosphorinane-2-(2,4,6- tribromophenoxy)-2-oxide (Liquid); method: Gravimetric
Temperature, K	Mole fraction of 5,5-dimethyl-1,3,2-dioxaphosphorinane-2-(2,4,6- tribromophenoxy)-2-oxide	uncertainty
288.15	.0053	.000053
293.15	.00649	.0000649
298.15	.00765	.0000765
303.15	.00867	.0000867
308.15	.01072	.0001072
313.15	.01186	.0001186
318.15	.01385	.0001385
323.15	.01632	.0001632
