Measured thermophysical data. Measurement of solubility of erythromycin acetone solvate in  aqueous acetone solution between 298K and 323K
Source: Fluid Phase Equilib., 2009, 10.1016/j.fluid.2008.10.016
Compound 1: acetone, C3H6O
Compound 2: water, H2O
Compound 3: erythromycin, 9-[(1-methylethylidene)hydrazone], C40H73N3O12

System: acetone + water + erythromycin, 9-[(1-methylethylidene)hydrazone]; phases: Liquid, Crystal
Fixed: Pressure, kPa = 101
Property: Mole fraction of erythromycin, 9-[(1-methylethylidene)hydrazone] (Liquid); method: synthetic method
Solvent: Mole fraction of water	Temperature, K	Mole fraction of erythromycin, 9-[(1-methylethylidene)hydrazone]	uncertainty
0	298	.00835	.00004175
0	303	.01305	.00006525
0	308	.01952	.0000976
0	313	.03399	.00016995
0	318	.04442	.0002221
0	323	.0654	.000327
.2294	298	.004546	.00002273
.2294	303	.00784	.0000392
.2294	308	.01171	.00005855
.2294	313	.01958	.0000979
.2294	318	.0278	.000139
.2294	323	.0394	.000197
.4465	298	.002849	.000014245
.4465	303	.004555	.000022775
.4465	308	.00659	.00003295
.4465	313	.00964	.0000482
.4465	318	.01167	.00005835
.4465	323	.01704	.0000852
.5786	298	.001633	.000008165
.5786	303	.002367	.000011835
.5786	308	.00352	.0000176
.5786	313	.00522	.0000261
.5786	318	.00627	.00003135
.5786	323	.00784	.0000392
.6849	298	.0007455	.0000037275
.6849	303	.001036	.00000518
.6849	308	.00185	.00000925
.6849	313	.00224	.0000112
.6849	318	.00294	.0000147
.6849	323	.00417	.00002085
.768	298	.0004982	.000002491
.768	303	.0006678	.000003339
.768	308	.0008499	.0000042495
.768	313	.0009469	.0000047345
.768	318	.00107	.00000535
.768	323	.00138	.0000069
.8448	298	.0003759	.0000018795
.8448	303	.0004251	.0000021255
.8448	308	.0004838	.000002419
.8448	313	.0005298	.000002649
.8448	318	.0005423	.0000027115
.8448	323	.0005615	.0000028075
.8687	298	.0003501	.0000017505
.8687	303	.0003589	.0000017945
.8687	308	.0003616	.000001808
.8687	313	.0003721	.0000018605
.8687	318	.0003756	.000001878
.8687	323	.0003812	.000001906

System: acetone + erythromycin, 9-[(1-methylethylidene)hydrazone]; phases: Liquid, Crystal
Property: Mole fraction of erythromycin, 9-[(1-methylethylidene)hydrazone] (Liquid); method: synthetic method
Temperature, K	Pressure, kPa	Mole fraction of erythromycin, 9-[(1-methylethylidene)hydrazone]	uncertainty
298	101	.00835	.00004175
303	101	.01305	.00006525
308	101	.01952	.0000976
313	101	.03399	.00016995
318	101	.04442	.0002221
323	101	.0654	.000327
