Measured thermophysical data. Phase equilibrium relations for binary mixed hydrate systemscomposed of carbon dioxide and cyclopentane derivatives
Source: Fluid Phase Equilib., 2014, 10.1016/j.fluid.2013.10.057
Compound 1: cyclopentane, C5H10, purity 98%
Compound 2: cyclopentanone, C5H8O, purity 99%
Compound 3: fluorocyclopentane, C5H9F, purity 98.69%

System: cyclopentane; phases: Liquid
Fixed: Pressure, kPa = 101.325
Property: Mass density, kg/m3 (Liquid); method: Vibrating tube method
Temperature, K	Mass density, kg/m3	uncertainty
273.15	762.3	.7623
278.15	757.5	.7575
283.15	752.6	.7526
288.15	747.7	.7477
293.15	742.8	.7428
298.15	737.8	.7378

System: cyclopentanone; phases: Liquid
Fixed: Pressure, kPa = 101.325
Property: Mass density, kg/m3 (Liquid); method: Vibrating tube method
Temperature, K	Mass density, kg/m3	uncertainty
273.15	969.1	.9691
278.15	964.3	.9643
283.15	959.5	.9595
288.15	954.7	.9547
293.15	949.9	.9499
298.15	945	.945

System: fluorocyclopentane; phases: Liquid
Fixed: Pressure, kPa = 101.325
Property: Mass density, kg/m3 (Liquid); method: Vibrating tube method
Temperature, K	Mass density, kg/m3	uncertainty
273.15	937.5	.9375
278.15	931.9	.9319
283.15	926.4	.9264
288.15	920.8	.9208
293.15	915.2	.9152
298.15	909.5	.9095
