Measured thermophysical data. Solid-liquid equilibrium of diphenyl anilinophosphonate in the different organic solvents
Source: Fluid Phase Equilib., 2015, 10.1016/j.fluid.2015.03.036
Compound 1: diphenyl anilinophosphonate, C18H16NO3P
Compound 2: acetonitrile, C2H3N, purity 99%
Compound 3: methanol, CH4O, purity 99.5%
Compound 4: chloroform, CHCl3, purity 99.5%
Compound 5: ethanol, C2H6O, purity 99.7%
Compound 6: acetone, C3H6O, purity 99.5%
Compound 7: toluene, C7H8, purity 99.5%
Compound 8: isopropanol, C3H8O, purity 99.5%
Compound 9: n-propanol, C3H8O, purity 99.5%
Compound 10: methyl acetate, C3H6O2, purity 98%
Compound 11: ethyl acetate, C4H8O2, purity 99.5%
Compound 12: 1,2-dichloroethane, C2H4Cl2, purity 99%
Compound 13: tetrahydrofuran, C4H8O, purity 99.8%

System: diphenyl anilinophosphonate; phases: Crystal, Liquid, Air at 1 atmosphere
Property: Molar enthalpy of transition or fusion, kJ/mol (Crystal); method: DSC
Molar enthalpy of transition or fusion, kJ/mol	uncertainty
.07156563502	.07156563502

System: diphenyl anilinophosphonate; phases: Crystal, Liquid
Property: Solid-liquid equilibrium temperature, K (Crystal); method: DSC/DTA
Pressure, kPa	Solid-liquid equilibrium temperature, K	uncertainty
100	406.91	.13

System: acetonitrile + diphenyl anilinophosphonate; phases: Liquid, Crystal
Fixed: Pressure, kPa = 100
Property: Mole fraction of diphenyl anilinophosphonate (Liquid); method: Density calibration data
Temperature, K	Mole fraction of diphenyl anilinophosphonate	uncertainty
293.15	.002765	.0000004424
298.15	.003772	.00000060352
303.15	.005084	.00000081344
308.15	.006707	.00000107312
313.15	.008832	.00000141312
318.15	.011461	.00000183376
323.15	.014873	.00000237968
328.15	.019838	.00000317408
333.15	.026541	.00000424656

System: methanol + diphenyl anilinophosphonate; phases: Liquid, Crystal
Fixed: Pressure, kPa = 100
Property: Mole fraction of diphenyl anilinophosphonate (Liquid); method: Density calibration data
Temperature, K	Mole fraction of diphenyl anilinophosphonate	uncertainty
293.15	.003365	.0000005384
298.15	.004375	.0000007
303.15	.005575	.000000892
308.15	.007068	.00000113088
313.15	.008873	.00000141968
318.15	.011029	.00000176464
323.15	.013848	.00000221568

System: chloroform + diphenyl anilinophosphonate; phases: Liquid, Crystal
Fixed: Pressure, kPa = 100
Property: Mole fraction of diphenyl anilinophosphonate (Liquid); method: Density calibration data
Temperature, K	Mole fraction of diphenyl anilinophosphonate	uncertainty
293.15	.033837	.00000541392
298.15	.039241	.00000627856
303.15	.045964	.00000735424
308.15	.053461	.00000855376
313.15	.061746	.00000987936
318.15	.070528	.00001128448
323.15	.079997	.00001279952

System: ethanol + diphenyl anilinophosphonate; phases: Liquid, Crystal
Fixed: Pressure, kPa = 100
Property: Mole fraction of diphenyl anilinophosphonate (Liquid); method: Density calibration data
Temperature, K	Mole fraction of diphenyl anilinophosphonate	uncertainty
293.15	.00347	.0000005552
298.15	.004513	.00000072208
303.15	.005812	.00000092992
308.15	.007303	.00000116848
313.15	.009361	.00000149776
318.15	.011768	.00000188288
323.15	.014942	.00000239072
328.15	.018963	.00000303408
333.15	.024066	.00000385056

System: acetone + diphenyl anilinophosphonate; phases: Liquid, Crystal
Fixed: Pressure, kPa = 100
Property: Mole fraction of diphenyl anilinophosphonate (Liquid); method: Density calibration data
Temperature, K	Mole fraction of diphenyl anilinophosphonate	uncertainty
293.15	.014684	.00000234944
298.15	.017656	.00000282496
303.15	.021444	.00000343104
308.15	.025912	.00000414592
313.15	.031625	.00000506
318.15	.038018	.00000608288
323.15	.045703	.00000731248

System: toluene + diphenyl anilinophosphonate; phases: Liquid, Crystal
Fixed: Pressure, kPa = 100
Property: Mole fraction of diphenyl anilinophosphonate (Liquid); method: Density calibration data
Temperature, K	Mole fraction of diphenyl anilinophosphonate	uncertainty
293.15	.004466	.00000071456
298.15	.00584	.0000009344
303.15	.007792	.00000124672
308.15	.010466	.00000167456
313.15	.014341	.00000229456
318.15	.0187	.000002992
323.15	.024382	.00000390112
328.15	.03158	.0000050528
333.15	.040903	.00000654448

System: isopropanol + diphenyl anilinophosphonate; phases: Liquid, Crystal
Fixed: Pressure, kPa = 100
Property: Mole fraction of diphenyl anilinophosphonate (Liquid); method: Density calibration data
Temperature, K	Mole fraction of diphenyl anilinophosphonate	uncertainty
293.15	.001962	.00000031392
298.15	.002658	.00000042528
303.15	.0036	.000000576
308.15	.004789	.00000076624
313.15	.006434	.00000102944
318.15	.008516	.00000136256
323.15	.01094	.0000017504
328.15	.014324	.00000229184
333.15	.018756	.00000300096

System: n-propanol + diphenyl anilinophosphonate; phases: Liquid, Crystal
Fixed: Pressure, kPa = 100
Property: Mole fraction of diphenyl anilinophosphonate (Liquid); method: Density calibration data
Temperature, K	Mole fraction of diphenyl anilinophosphonate	uncertainty
293.15	.003653	.00000058448
298.15	.004826	.00000077216
303.15	.006186	.00000098976
308.15	.007995	.0000012792
313.15	.010333	.00000165328
318.15	.01331	.0000021296
323.15	.016973	.00000271568
328.15	.021539	.00000344624
333.15	.027335	.0000043736

System: methyl acetate + diphenyl anilinophosphonate; phases: Liquid, Crystal
Fixed: Pressure, kPa = 100
Property: Mole fraction of diphenyl anilinophosphonate (Liquid); method: Density calibration data
Temperature, K	Mole fraction of diphenyl anilinophosphonate	uncertainty
293.15	.011425	.000001828
298.15	.01415	.000002264
303.15	.017524	.00000280384
308.15	.021658	.00000346528
313.15	.026768	.00000428288
318.15	.033027	.00000528432
323.15	.040343	.00000645488

System: ethyl acetate + diphenyl anilinophosphonate; phases: Liquid, Crystal
Fixed: Pressure, kPa = 100
Property: Mole fraction of diphenyl anilinophosphonate (Liquid); method: Density calibration data
Temperature, K	Mole fraction of diphenyl anilinophosphonate	uncertainty
293.15	.010238	.00000163808
298.15	.012578	.00000201248
303.15	.015638	.00000250208
308.15	.019505	.0000031208
313.15	.023941	.00000383056
318.15	.029211	.00000467376
323.15	.035783	.00000572528
328.15	.04349	.0000069584
333.15	.052489	.00000839824

System: 1,2-dichloroethane + diphenyl anilinophosphonate; phases: Liquid, Crystal
Fixed: Pressure, kPa = 100
Property: Mole fraction of diphenyl anilinophosphonate (Liquid); method: Density calibration data
Temperature, K	Mole fraction of diphenyl anilinophosphonate	uncertainty
293.15	.012641	.00000202256
298.15	.015871	.00000253936
303.15	.020472	.00000327552
308.15	.025829	.00000413264
313.15	.032588	.00000521408
318.15	.040487	.00000647792
323.15	.050302	.00000804832
328.15	.06189	.0000099024
333.15	.07509	.0000120144

System: tetrahydrofuran + diphenyl anilinophosphonate; phases: Liquid, Crystal
Fixed: Pressure, kPa = 100
Property: Mole fraction of diphenyl anilinophosphonate (Liquid); method: Density calibration data
Temperature, K	Mole fraction of diphenyl anilinophosphonate	uncertainty
293.15	.050524	.00000808384
298.15	.056443	.00000903088
303.15	.062364	.00000997824
308.15	.06802	.0000108832
313.15	.073368	.00001173888
318.15	.08073	.0000129168
323.15	.088132	.00001410112
328.15	.095469	.00001527504
333.15	.10259	.0000164144
