Measured thermophysical data. Solubility of naproxen in ethyl acetate + ethanol mixtures at several temperatures and correlation with the Jouyban-Acree model
Source: Fluid Phase Equilib., 2012, 10.1016/j.fluid.2012.02.009
Compound 1: 2-naphthaleneacetic acid, 6-methoxy-.alpha.-methyl-, (S)-, C14H14O3, purity 99%
Compound 2: propanoic acid, C3H6O2, purity 99.5%
Compound 3: ethyl ethanoate, C4H8O2, purity 99.5%
Compound 4: ethanol, C2H6O, purity 99.5%

System: ethanol + ethyl ethanoate + 2-naphthaleneacetic acid, 6-methoxy-.alpha.-methyl-, (S)-; phases: Liquid, Crystal
Fixed: Pressure, kPa = 73.9
Property: Mole fraction of 2-naphthaleneacetic acid, 6-methoxy-.alpha.-methyl-, (S)- (Liquid); method: Gravimetric
Temperature, K	Solvent: Mass fraction of ethyl ethanoate	Mole fraction of 2-naphthaleneacetic acid, 6-methoxy-.alpha.-methyl-, (S)-	uncertainty
293.15	0	.01213	.00004
293.15	.1	.01666	.00002
293.15	.2	.02179	.0005
293.15	.3	.02742	.00028
293.15	.4	.03279	.00004
293.15	.5	.03844	.0003
293.15	.6	.04243	.0001
293.15	.7	.0448	.0008
293.15	.8	.04321	.0001
293.15	.9	.03712	.00026
293.15	1	.02204	.0003
298.15	0	.0148	.00012
298.15	.1	.01987	.00004
298.15	.2	.0249	.0006
298.15	.3	.0317	.0006
298.15	.4	.03743	.00014
298.15	.5	.04349	.00028
298.15	.6	.04802	.00014
298.15	.7	.05046	.00048
298.15	.8	.04897	.00046
298.15	.9	.04149	.0001
298.15	1	.02571	.00034
303.15	0	.01772	.00018
303.15	.1	.0235	.0005
303.15	.2	.03042	.00052
303.15	.3	.03752	.00018
303.15	.4	.0443	.0012
303.15	.5	.0506	.0008
303.15	.6	.05481	.00048
303.15	.7	.057	.0008
303.15	.8	.05517	.00014
303.15	.9	.0474	.00058
303.15	1	.0298	.0006
308.15	0	.02086	.00044
308.15	.1	.0287	.0012
308.15	.2	.0367	.001
308.15	.3	.0442	.001
308.15	.4	.0508	.0008
308.15	.5	.05825	.0001
308.15	.6	.0627	.00012
308.15	.7	.06535	.00014
308.15	.8	.0628	.0006
308.15	.9	.05406	.00042
308.15	1	.03447	.00044
313.15	0	.02424	.0001
313.15	.1	.0325	.0014
313.15	.2	.0406	.00046
313.15	.3	.04998	.00016
313.15	.4	.05742	.00016
313.15	.5	.0643	.00012
313.15	.6	.0697	.001
313.15	.7	.0728	.00048
313.15	.8	.06989	.00026
313.15	.9	.06048	.00072
313.15	1	.03787	.00028
