Measured thermophysical data. Reliability of Arrhenius and several VTF laws to describe the effect of TaF5 addition onto the transport properties of 1-butyl-1- methylpyrrolidinium bis(trifluoromethylsulfonyl)imide
Source: Fluid Phase Equilib., 2016, 10.1016/j.fluid.2016.01.043
Compound 1: 1-butyl-1-methylpyrrolidinium bis(trifluoromethylsulfonyl)imide, C11H20F6N2O4S2, purity 99%
Compound 2: Tantalum fluoride, F5Ta, purity 0.995%

System: 1-butyl-1-methylpyrrolidinium bis(trifluoromethylsulfonyl)imide; phases: Crystal, Liquid, Air at 1 atmosphere
Property: Normal melting temperature, K (Crystal); method: DSC/DTA
Normal melting temperature, K	uncertainty
251	.5

System: 1-butyl-1-methylpyrrolidinium bis(trifluoromethylsulfonyl)imide; phases: Liquid
Property: Viscosity, Pa*s (Liquid); method: Cone and plate viscometry
Temperature, K	Pressure, kPa	Viscosity, Pa*s	uncertainty
293.15	101	.102	
303.15	101	.067	
312.15	101	.047	
321.22	101	.036	
330.29	101	.028	
339.37	101	.022	
348.44	101	.017	
357.52	101	.014	
367.49	101	.011	
377.46	101	.01	
386.53	101	.008	
394.73	101	.007	
403.15	101	.006	
312.17	101	.047	

System: 1-butyl-1-methylpyrrolidinium bis(trifluoromethylsulfonyl)imide; phases: Liquid
Property: Electrical conductivity, S/m (Liquid); method: Direct current cell with electrodes
Temperature, K	Pressure, kPa	Electrical conductivity, S/m	uncertainty
293.15	101	.25	
313.15	101	.47	
323.15	101	.63	
333.15	101	.8	
343.15	101	1.01	
353.15	101	1.21	
373.15	101	1.74	
393.15	101	2.3	
413.15	101	2.92	
433.15	101	3.61	
453.15	101	4.33	

System: Tantalum fluoride + 1-butyl-1-methylpyrrolidinium bis(trifluoromethylsulfonyl)imide; phases: Liquid
Fixed: Pressure, kPa = 101
Property: Viscosity, Pa*s (Liquid); method: Cone and plate viscometry
Temperature, K	Molality, mol/kg of Tantalum fluoride	Viscosity, Pa*s	uncertainty
293.15	0	.102	
303.15	0	.067	
303.15	.08	.071	
303.15	.17	.073	
303.15	.35	.077	
303.15	.7	.081	
303.15	1.41	.087	
312.15	0	.047	
321.22	0	.036	
321.22	.08	.038	
321.22	.17	.04	
321.22	.35	.041	
321.22	.7	.044	
321.22	1.41	.047	
330.29	0	.028	
339.37	0	.022	
339.37	.08	.023	
339.37	.17	.024	
339.37	.35	.025	
339.37	.7	.026	
339.37	1.41	.028	
348.44	0	.017	
357.52	0	.014	
367.49	0	.011	
367.49	.08	.012	
367.49	.17	.012	
367.49	.35	.013	
367.49	.7	.014	
367.49	1.41	.015	
377.46	0	.01	
386.53	0	.008	
394.73	0	.007	
403.15	0	.006	
403.15	.08	.007	
403.15	.17	.007	
403.15	.35	.007	
403.15	.7	.008	
403.15	1.41	.008	
312.17	0	.047	
312.17	.08	.051	
312.17	.17	.052	
312.17	.35	.056	
312.17	.7	.059	
312.17	1.41	.062	

System: Tantalum fluoride + 1-butyl-1-methylpyrrolidinium bis(trifluoromethylsulfonyl)imide; phases: Liquid
Fixed: Pressure, kPa = 101
Property: Electrical conductivity, S/m (Liquid); method: Direct current cell with electrodes
Temperature, K	Molality, mol/kg of Tantalum fluoride	Electrical conductivity, S/m	uncertainty
293.15	0	.25	
293.15	.08	.24	
293.15	.17	.23	
293.15	.35	.23	
293.15	.7	.22	
293.15	1.41	.22	
313.15	0	.47	
323.15	0	.63	
333.15	0	.8	
343.15	0	1.01	
353.15	0	1.21	
373.15	0	1.74	
373.15	.08	1.73	
373.15	.17	1.66	
373.15	.35	1.65	
373.15	.7	1.56	
373.15	1.41	1.37	
393.15	0	2.3	
413.15	0	2.92	
413.15	.08	2.94	
413.15	.17	2.81	
413.15	.35	2.78	
413.15	.7	2.66	
413.15	1.41	2.27	
433.15	0	3.61	
453.15	0	4.33	
453.15	.08	4.23	
453.15	.17	4.16	
453.15	.35	4.13	
453.15	.7	3.84	
453.15	1.41	3.44	
