Measured thermophysical data. Extraction of aromatic nitrogen compounds from heptane quinolinium and isoquinolinium based ionic liquids
Source: Fluid Phase Equilib., 2015, 10.1016/j.fluid.2015.05.003
Compound 1: N-hexylisoquinolinium thiocyanate, C16H20N2S
Compound 2: N-octylisoquinolinium thiocyanate, C18H24N2S
Compound 3: N-hexylisoquinolinium bis(trifluoromethylsulfonyl)imide, C17H20F6N2O4S2
Compound 4: N-octylisoquinolinium bis((trifluoromethyl)sulfonyl)amide, C19H24F6N2O4S2
Compound 5: pyridine, C5H5N
Compound 6: heptane, C7H16
Compound 7: 3-methylpyridine, C6H7N

System: N-hexylisoquinolinium thiocyanate; phases: Liquid
Fixed: Pressure, kPa = 101.325
Property: Mass density, kg/m3 (Liquid); method: Unknown
Temperature, K	Mass density, kg/m3	uncertainty
298.15	1081.34	

System: N-octylisoquinolinium thiocyanate; phases: Liquid
Fixed: Pressure, kPa = 101.325
Property: Mass density, kg/m3 (Liquid); method: Unknown
Temperature, K	Mass density, kg/m3	uncertainty
298.15	1061.69	

System: pyridine + heptane + N-hexylisoquinolinium thiocyanate; phases: Liquid mixture 1, Liquid mixture 2
Fixed: Pressure, kPa = 100
Property: Mole fraction of N-hexylisoquinolinium thiocyanate (Liquid mixture 1); method: Chromatography
Property: Mole fraction of N-hexylisoquinolinium thiocyanate (Liquid mixture 2); method: Chromatography
Property: Mole fraction of pyridine (Liquid mixture 2); method: Chromatography
Temperature, K	Mole fraction of pyridine	Mole fraction of N-hexylisoquinolinium thiocyanate	uncertainty	Mole fraction of N-hexylisoquinolinium thiocyanate	uncertainty	Mole fraction of pyridine	uncertainty
298.15	0	0	.003	.976	.005	0	.005
298.15	.2	0	.003	.381	.005	.59	.005
298.15	.274	0	.003	.285	.005	.682	.005
298.15	.359	0	.003	.217	.005	.741	.005
298.15	.426	0	.003	.175	.005	.775	.005
298.15	.539	0	.003	.133	.005	.803	.005
298.15	.648	.002	.003	.089	.005	.816	.005
298.15	.024	0	.003	.825	.005	.152	.005
298.15	.055	0	.003	.682	.005	.295	.005
298.15	.084	0	.003	.594	.005	.383	.005
298.15	.102	0	.003	.537	.005	.438	.005
298.15	.153	0	.003	.425	.005	.548	.005

System: pyridine + heptane + N-octylisoquinolinium thiocyanate; phases: Liquid mixture 2, Liquid mixture 1
Fixed: Pressure, kPa = 100
Property: Mole fraction of pyridine (Liquid mixture 2); method: Chromatography
Property: Mole fraction of pyridine (Liquid mixture 1); method: Chromatography
Property: Mole fraction of N-octylisoquinolinium thiocyanate (Liquid mixture 1); method: Chromatography
Temperature, K	Mole fraction of N-octylisoquinolinium thiocyanate	Mole fraction of pyridine	uncertainty	Mole fraction of pyridine	uncertainty	Mole fraction of N-octylisoquinolinium thiocyanate	uncertainty
298.15	.971	0	.005	0	.003	0	.003
298.15	.15	.771	.005	.456	.003	.018	.003
298.15	.093	.797	.005	.589	.003	.025	.003
298.15	.049	.772	.005	.701	.003	.026	.003
298.15	.86	.086	.005	.015	.003	.003	.003
298.15	.692	.256	.005	.049	.003	.004	.003
298.15	.592	.357	.005	.076	.003	.009	.003
298.15	.522	.428	.005	.104	.003	.012	.003
298.15	.423	.527	.005	.152	.003	.012	.003
298.15	.354	.598	.005	.21	.003	.016	.003
298.15	.248	.692	.005	.29	.003	.016	.003
298.15	.209	.726	.005	.36	.003	.017	.003

System: 3-methylpyridine + heptane + N-octylisoquinolinium thiocyanate; phases: Liquid mixture 2, Liquid mixture 1
Fixed: Pressure, kPa = 100
Property: Mole fraction of 3-methylpyridine (Liquid mixture 2); method: Chromatography
Property: Mole fraction of 3-methylpyridine (Liquid mixture 1); method: Chromatography
Property: Mole fraction of N-octylisoquinolinium thiocyanate (Liquid mixture 1); method: Chromatography
Temperature, K	Mole fraction of N-octylisoquinolinium thiocyanate	Mole fraction of 3-methylpyridine	uncertainty	Mole fraction of 3-methylpyridine	uncertainty	Mole fraction of N-octylisoquinolinium thiocyanate	uncertainty
298.15	.971	0	.005	0	.003	0	.003
298.15	.176	.726	.005	.544	.003	.009	.003
298.15	.079	.769	.005	.685	.003	.011	.003
298.15	.824	.11	.005	.023	.003	0	.003
298.15	.77	.17	.005	.039	.003	0	.003
298.15	.663	.273	.005	.074	.003	0	.003
298.15	.56	.373	.005	.121	.003	0	.003
298.15	.522	.414	.005	.16	.003	.003	.003
298.15	.396	.534	.005	.261	.003	.005	.003
298.15	.29	.626	.005	.33	.003	.006	.003
298.15	.236	.677	.005	.422	.003	.007	.003

System: pyridine + heptane + N-hexylisoquinolinium bis(trifluoromethylsulfonyl)imide; phases: Liquid mixture 2, Liquid mixture 1
Fixed: Pressure, kPa = 100
Property: Mole fraction of pyridine (Liquid mixture 2); method: Chromatography
Property: Mole fraction of pyridine (Liquid mixture 1); method: Chromatography
Property: Mole fraction of N-hexylisoquinolinium bis(trifluoromethylsulfonyl)imide (Liquid mixture 1); method: Chromatography
Temperature, K	Mole fraction of N-hexylisoquinolinium bis(trifluoromethylsulfonyl)imide	Mole fraction of pyridine	uncertainty	Mole fraction of pyridine	uncertainty	Mole fraction of N-hexylisoquinolinium bis(trifluoromethylsulfonyl)imide	uncertainty
298.15	.445	.458	.005	.045	.003	0	.003
298.15	.055	.771	.005	.498	.003	0	.003
298.15	.418	.483	.005	.076	.003	0	.003
298.15	.378	.527	.005	.089	.003	0	.003
298.15	.312	.59	.005	.108	.003	0	.003
298.15	.241	.656	.005	.169	.003	0	.003
298.15	.205	.691	.005	.208	.003	0	.003
298.15	.161	.73	.005	.264	.003	0	.003
298.15	.116	.757	.005	.346	.003	0	.003
298.15	.087	.767	.005	.412	.003	0	.003

System: pyridine + heptane + N-octylisoquinolinium bis((trifluoromethyl)sulfonyl)amide; phases: Liquid mixture 2, Liquid mixture 1
Fixed: Pressure, kPa = 100
Property: Mole fraction of pyridine (Liquid mixture 2); method: Chromatography
Property: Mole fraction of pyridine (Liquid mixture 1); method: Chromatography
Property: Mole fraction of N-octylisoquinolinium bis((trifluoromethyl)sulfonyl)amide (Liquid mixture 1); method: Chromatography
Temperature, K	Mole fraction of N-octylisoquinolinium bis((trifluoromethyl)sulfonyl)amide	Mole fraction of pyridine	uncertainty	Mole fraction of pyridine	uncertainty	Mole fraction of N-octylisoquinolinium bis((trifluoromethyl)sulfonyl)amide	uncertainty
298.15	.548	.328	.005	.035	.003	0	.003
298.15	.447	.425	.005	.053	.003	0	.003
298.15	.381	.497	.005	.08	.003	0	.003
298.15	.291	.587	.005	.115	.003	0	.003
298.15	.253	.624	.005	.14	.003	0	.003
298.15	.187	.69	.005	.198	.003	0	.003
298.15	.141	.728	.005	.271	.003	0	.003
298.15	.088	.764	.005	.365	.003	0	.003
298.15	.047	.741	.005	.505	.003	0	.003
