Measured thermophysical data. Separation of azeotropic mixtures using high ionicity ionic liquid based on 1-ethyl-3- methylimidazolium thiocyanate
Source: Fluid Phase Equilib., 2015, 10.1016/j.fluid.2015.01.011
Compound 1: 1-ethyl-3-methylimidazolium thiocyanate, C7H11N3S, purity 95%
Compound 2: 1-ethyl-3-methylimidazolium ethyl sulfate, C8H16N2O4S, purity 98%
Compound 3: 1-ethyl-3-methylimidazolium dicyanamide, C8H11N5, purity 98%
Compound 4: heptane, C7H16, purity 99%
Compound 5: ethanol, C2H6O, purity 99.5%
Compound 6: ammonium thiocyanate, CH4N2S, purity 97.5%

System: ethanol + heptane + 1-ethyl-3-methylimidazolium thiocyanate; phases: Liquid mixture 2, Liquid mixture 1
Property: Mass fraction of heptane (Liquid mixture 2); method: Other
Property: Mass fraction of heptane (Liquid mixture 1); method: Other
Property: Mass fraction of ethanol (Liquid mixture 1); method: Other
Temperature, K	Pressure, kPa	Mass fraction of ethanol	Mass fraction of heptane	uncertainty	Mass fraction of heptane	uncertainty	Mass fraction of ethanol	uncertainty
298.15	100	.0785	.0068		.9894		.0094	
298.15	100	.1345	.0104		.9876		.0113	
298.15	100	.2632	.017		.9858		.0134	
298.15	100	.3773	.0272		.9594		.0399	
298.15	100	.4675	.043		.9292		.0701	
298.15	100	.525	.0765		.8741		.1241	
298.15	100	.5748	.1295		.8107		.1846	

System: ethanol + heptane + 1-ethyl-3-methylimidazolium thiocyanate; phases: Liquid
Fixed: Pressure, kPa = 100
Fixed: Temperature, K = 298.15
Property: Mass density, kg/m3 (Liquid); method: Vibrating tube method
Mole fraction of heptane	Mole fraction of ethanol	Mass density, kg/m3	uncertainty
1	0	675.41	.202623
.9723	.0277	680.483	.2041449
.9555	.0445	680.85	.204255
.9	.1	683.45	.205035
.8336	.1664	686.893	.2060679
.7929	.2059	687.27	.206181
.6996	.2984	694.803	.2084409
.6218	.3762	698.26	.209478
.5644	.4321	703.923	.2111769
.4699	.5204	715.17	.214551
.3668	.6154	732.673	.2198019
.3295	.6481	740.67	.222201
.238	.7234	765.957	.2297871
.1944	.7561	782.117	.2346351
.1704	.7725	792.497	.2377491
.1391	.7889	809.867	.2429601
.1173	.7981	824.15	.247245
.0962	.8062	837.96	.251388
.0789	.8043	859.827	.2579481
.0678	.8003	870.52	.261156
.0579	.7907	884.94	.265482
.0439	.7813	902.587	.2707761
.0396	.7714	914.753	.2744259
.032	.758	924.867	.2774601
.0267	.7425	937.687	.2813061
.0251	.7238	947.303	.2841909
.0223	.6683	972.68	.291804
.0189	.6314	990.327	.2970981
.0173	.5831	1006.49	.301947
.0141	.8336	1023.01	.306903
.0133	.4678	1040.16	.312048
.0138	.3563	1064.673	.3194019
.0137	.2447	1085.14	.325542
0	0	1112.98	.333894

System: ethanol + heptane + 1-ethyl-3-methylimidazolium thiocyanate; phases: Liquid
Fixed: Pressure, kPa = 100
Fixed: Temperature, K = 298.15
Property: Refractive index (Na D-line) (Liquid); method: Standard Abbe refractometry
Mole fraction of heptane	Mole fraction of ethanol	Refractive index (Na D-line)	uncertainty
1	0	1.38537	.00005
.9723	.0277	1.38537	.00005
.9555	.0445	1.384863	.00005
.9	.1	1.38461	.00005
.8336	.1664	1.383507	.00005
.7929	.2059	1.38251	.00005
.6996	.2984	1.38201	.00005
.6218	.3762	1.379907	.00005
.5644	.4321	1.37866	.00005
.4699	.5204	1.385297	.00005
.3668	.6154	1.37871	.00005
.3295	.6481	1.38354	.00005
.238	.7234	1.38362	.00005
.1944	.7561	1.38515	.00005
.1704	.7725	1.38761	.00005
.1391	.7889	1.390923	.00005
.1173	.7981	1.395423	.00005
.0962	.8062	1.400213	.00005
.0789	.8043	1.40565	.00005
.0678	.8003	1.41448	.00005
.0579	.7907	1.41892	.00005
.0439	.7813	1.428293	.00005
.0396	.7714	1.43448	.00005
.032	.758	1.440377	.00005
.0267	.7425	1.444263	.00005
.0251	.7238	1.45147	.00005
.0223	.6683	1.455917	.00005
.0189	.6314	1.470453	.00005
.0173	.5831	1.47905	.00005
.0141	.8336	1.488777	.00005
.0133	.4678	1.49776	.00005
.0138	.3563	1.506383	.00005
.0137	.2447	1.521703	.00005
0	0	1.532593	.00005

System: ethanol + heptane + 1-ethyl-3-methylimidazolium thiocyanate; phases: Liquid mixture 1, Liquid mixture 2
Fixed: Pressure, kPa = 100
Fixed: Temperature, K = 298.15
Property: Mole fraction of 1-ethyl-3-methylimidazolium thiocyanate (Liquid mixture 1); method: visual
Mole fraction of heptane	Mole fraction of 1-ethyl-3-methylimidazolium thiocyanate	uncertainty
1	0	
.9723	0	
.9555	0	
.9	0	
.8336	0	
.7929	.0013	
.6996	.0019	
.6218	.002	
.5644	.0035	
.4699	.0097	
.3668	.0179	
.3295	.0225	
.238	.0386	
.1944	.0495	
.1704	.0571	
.1391	.072	
.1173	.0846	
.0962	.0975	
.0789	.1168	
.0678	.1319	
.0579	.1514	
.0439	.1748	
.0396	.1889	
.032	.21	
.0267	.2308	
.0251	.2511	
.0223	.3093	
.0189	.3497	
.0173	.3996	
.0141	.4572	
.0133	.5189	
.0138	.6299	
.0137	.7416	
0	1	

System: 1-ethyl-3-methylimidazolium thiocyanate + 1-ethyl-3-methylimidazolium dicyanamide; phases: Liquid
Fixed: Pressure, kPa = 100
Property: Mass density, kg/m3 (Liquid); method: Vibrating tube method
Temperature, K	Mole fraction of 1-ethyl-3-methylimidazolium dicyanamide	Mass density, kg/m3	uncertainty
298.15	0	1115.6	.33468
298.15	.2397	1112.2	.33366
298.15	.4888	1108.5	.33255
298.15	.7415	1104.7	.33141
298.15	1	1100.8	.33024
303.15	0	1112.5	.33375
303.15	.2397	1109.1	.33273
303.15	.4888	1105.3	.33159
303.15	.7415	1101.4	.33042
303.15	1	1097.4	.32922
308.15	0	1109.5	.33285
308.15	.2397	1106	.3318
308.15	.4888	1102.2	.33066
308.15	.7415	1098.2	.32946
308.15	1	1094.2	.32826
313.15	0	1106.5	.33195
313.15	.2397	1102.9	.33087
313.15	.4888	1099	.3297
313.15	.7415	1095	.3285
313.15	1	1090.9	.32727
318.15	0	1103.6	.33108
318.15	.2397	1099.9	.32997
318.15	.4888	1096	.3288
318.15	.7415	1091.8	.32754
318.15	1	1087.7	.32631
323.15	0	1100.6	.33018
323.15	.2397	1097	.3291
323.15	.4888	1092.9	.32787
323.15	.7415	1088.7	.32661
323.15	1	1084.6	.32538
328.15	0	1097.7	.32931
328.15	.2397	1094	.3282
328.15	.4888	1089.8	.32694
328.15	.7415	1085.6	.32568
328.15	1	1081.4	.32442
333.15	0	1094.8	.32844
333.15	.2397	1091	.3273
333.15	.4888	1086.8	.32604
333.15	.7415	1082.5	.32475
333.15	1	1078.2	.32346
338.15	0	1091.9	.32757
338.15	.2397	1088.1	.32643
338.15	.4888	1083.7	.32511
338.15	.7415	1079.4	.32382
338.15	1	1075.1	.32253
343.15	0	1088.9	.32667
343.15	.2397	1085.1	.32553
343.15	.4888	1080.7	.32421
343.15	.7415	1076.3	.32289
343.15	1	1071.9	.32157
348.15	0	1085.9	.32577
348.15	.2397	1082.1	.32463
348.15	.4888	1077.6	.32328
348.15	.7415	1073.2	.32196
348.15	1	1068.7	.32061
353.15	0	1082.7	.32481
353.15	.2397	1079.1	.32373
353.15	.4888	1074.5	.32235
353.15	.7415	1070.1	.32103
353.15	1	1065.3	.31959

System: 1-ethyl-3-methylimidazolium thiocyanate + 1-ethyl-3-methylimidazolium dicyanamide; phases: Liquid
Fixed: Pressure, kPa = 100
Property: Viscosity, Pa*s (Liquid); method: Concentric cylinders viscometry
Temperature, K	Mole fraction of 1-ethyl-3-methylimidazolium dicyanamide	Viscosity, Pa*s	uncertainty
298.15	0	.023062	.00046124
298.15	.2397	.02062	.0004124
298.15	.4888	.018269	.00036538
298.15	.7415	.016356	.00032712
298.15	1	.014778	.00029556
303.15	0	.019677	.00039354
303.15	.2397	.017662	.00035324
303.15	.4888	.0157445	.00031489
303.15	.7415	.01418	.0002836
303.15	1	.012875	.0002575
308.15	0	.016972	.00033944
308.15	.2397	.015296	.00030592
308.15	.4888	.0137045	.00027409
308.15	.7415	.012403	.00024806
308.15	1	.011302	.00022604
313.15	0	.014543	.00029086
313.15	.2397	.0131245	.00026249
313.15	.4888	.0117825	.00023565
313.15	.7415	.010718	.00021436
313.15	1	.0097586	.000195172
318.15	0	.012976	.00025952
318.15	.2397	.0117885	.00023577
318.15	.4888	.0106565	.00021313
318.15	.7415	.0097503	.000195006
318.15	1	.0089286	.000178572
323.15	0	.011488	.00022976
323.15	.2397	.010473	.00020946
323.15	.4888	.0095083	.000190166
323.15	.7415	.00873	.0001746
323.15	1	.0080098	.000160196
328.15	0	.010246	.00020492
328.15	.2397	.009374	.00018748
328.15	.4888	.008536	.00017072
328.15	.7415	.007871	.00015742
328.15	1	.007235	.0001447
333.15	0	.00902	.0001804
333.15	.2397	.00825	.000165
333.15	.4888	.007515	.0001503
333.15	.7415	.006923	.00013846
333.15	1	.006367	.00012734
338.15	0	.008297	.00016594
338.15	.2397	.00764	.0001528
338.15	.4888	.007006	.00014012
338.15	.7415	.006493	.00012986
338.15	1	.006002	.00012004
343.15	0	.007532	.00015064
343.15	.2397	.006953	.00013906
343.15	.4888	.006396	.00012792
343.15	.7415	.005942	.00011884
343.15	1	.005508	.00011016
348.15	0	.00687	.0001374
348.15	.2397	.006358	.00012716
348.15	.4888	.005867	.00011734
348.15	.7415	.005465	.0001093
348.15	1	.005064	.00010128
353.15	0	.006169	.00012338
353.15	.2397	.0057	.000114
353.15	.4888	.005251	.00010502
353.15	.7415	.004888	.00009776
353.15	1	.00452	.0000904

System: 1-ethyl-3-methylimidazolium thiocyanate + 1-ethyl-3-methylimidazolium dicyanamide; phases: Liquid
Fixed: Pressure, kPa = 100
Property: Electrical conductivity, S/m (Liquid); method: Alternating current cell with electrodes
Temperature, K	Mole fraction of 1-ethyl-3-methylimidazolium dicyanamide	Electrical conductivity, S/m	uncertainty
298.15	0	2.317	.04634
298.15	.2397	2.41	.0482
298.15	.4888	2.512	.05024
298.15	.7415	2.678	.05356
298.15	1	2.838	.05676
303.15	0	2.67	.0534
303.15	.2397	2.76	.0552
303.15	.4888	2.888	.05776
303.15	.7415	3.051	.06102
303.15	1	3.223	.06446
308.15	0	3.055	.0611
308.15	.2397	3.143	.06286
308.15	.4888	3.272	.06544
308.15	.7415	3.446	.06892
308.15	1	3.628	.07256
313.15	0	3.466	.06932
313.15	.2397	3.557	.07114
313.15	.4888	3.665	.0733
313.15	.7415	3.872	.07744
313.15	1	4.064	.08128
318.15	0	3.915	.0783
318.15	.2397	4.015	.0803
318.15	.4888	4.145	.0829
318.15	.7415	4.333	.08666
318.15	1	4.518	.09036
323.15	0	4.383	.08766
323.15	.2397	4.483	.08966
323.15	.4888	4.617	.09234
323.15	.7415	4.812	.09624
323.15	1	5.017	.10034

System: 1-ethyl-3-methylimidazolium thiocyanate + 1-ethyl-3-methylimidazolium ethyl sulfate; phases: Liquid
Fixed: Pressure, kPa = 100
Property: Viscosity, Pa*s (Liquid); method: Concentric cylinders viscometry
Temperature, K	Mole fraction of 1-ethyl-3-methylimidazolium ethyl sulfate	Viscosity, Pa*s	uncertainty
298.15	0	.023062	.00046124
298.15	.0495	.024954	.00049908
298.15	.101	.0278305	.00055661
298.15	.33	.043502	.00087004
298.15	.571	.0653315	.00130663
298.15	.68	.0835445	.00167089
298.15	.801	.096399	.00192798
298.15	1	.096869	.00193738
303.15	0	.019677	.00039354
303.15	.0495	.021196	.00042392
303.15	.101	.023497	.00046994
303.15	.33	.035844	.00071688
303.15	.571	.052651	.00105302
303.15	.68	.066526	.00133052
303.15	.801	.076128	.00152256
303.15	1	.076515	.0015303
308.15	0	.016972	.00033944
308.15	.0495	.018204	.00036408
308.15	.101	.0200725	.00040145
308.15	.33	.029984	.00059968
308.15	.571	.0431135	.00086227
308.15	.68	.0538705	.00107741
308.15	.801	.0612035	.00122407
308.15	1	.061601	.00123202
313.15	0	.016972	.00033944
313.15	.0495	.018204	.00036408
313.15	.101	.0200725	.00040145
313.15	.33	.029984	.00059968
313.15	.571	.0431135	.00086227
313.15	.68	.0538705	.00107741
313.15	.801	.0612035	.00122407
313.15	1	.061601	.00123202
318.15	0	.014543	.00029086
318.15	.0495	.015567	.00031134
318.15	.101	.017127	.00034254
318.15	.33	.025303	.00050606
318.15	.571	.035859	.00071718
318.15	.68	.0444085	.00088817
318.15	.801	.050128	.00100256
318.15	1	.050499	.00100998
323.15	0	.011488	.00022976
323.15	.0495	.012203	.00024406
323.15	.101	.013301	.00026602
323.15	.33	.018779	.00037558
323.15	.571	.025652	.00051304
323.15	.68	.0311395	.00062279
323.15	.801	.0347435	.00069487
323.15	1	.035026	.00070052
328.15	0	.010246	.00020492
328.15	.0495	.010856	.00021712
328.15	.101	.011784	.00023568
328.15	.33	.016379	.00032758
328.15	.571	.022053	.00044106
328.15	.68	.0265585	.00053117
328.15	.801	.0294835	.00058967
328.15	1	.02973	.0005946
333.15	0	.0090199	.000180398
333.15	.0495	.0095558	.000191116
333.15	.101	.010374	.00020748
333.15	.33	.014352	.00028704
333.15	.571	.0191405	.00038281
333.15	.68	.0229335	.00045867
333.15	.801	.0253285	.00050657
333.15	1	.025551	.00051102
338.15	0	.0082973	.000165946
338.15	.0495	.0087492	.000174984
338.15	.101	.0094458	.000188916
338.15	.33	.012759	.00025518
338.15	.571	.0167365	.00033473
338.15	.68	.0198925	.00039785
338.15	.801	.02185	.000437
338.15	1	.022036	.00044072
343.15	0	.0075322	.000150644
343.15	.0495	.0079189	.000158378
343.15	.101	.0085285	.00017057
343.15	.33	.011375	.0002275
343.15	.571	.0147455	.00029491
343.15	.68	.017426	.00034852
343.15	.801	.0190605	.00038121
343.15	1	.019226	.00038452
348.15	0	.0068699	.000137398
348.15	.0495	.0072061	.000144122
348.15	.101	.0077415	.00015483
348.15	.33	.010206	.00020412
348.15	.571	.0130775	.00026155
348.15	.68	.0153835	.00030767
348.15	.801	.0167535	.00033507
348.15	1	.016894	.00033788
353.15	0	.0061691	.000123382
353.15	.0495	.0064757	.000129514
353.15	.101	.0069649	.000139298
353.15	.33	.0091617	.000183234
353.15	.571	.0116815	.00023363
353.15	.68	.013707	.00027414
353.15	.801	.014872	.00029744
353.15	1	.014999	.00029998

System: 1-ethyl-3-methylimidazolium thiocyanate + 1-ethyl-3-methylimidazolium ethyl sulfate; phases: Liquid
Fixed: Pressure, kPa = 100
Property: Mass density, kg/m3 (Liquid); method: Vibrating tube method
Temperature, K	Mole fraction of 1-ethyl-3-methylimidazolium ethyl sulfate	Mass density, kg/m3	uncertainty
298.15	0	1115.6	.33468
298.15	.0495	1123.5	.33705
298.15	.101	1133.5	.34005
298.15	.33	1167.7	.35031
298.15	.571	1198.7	.35961
298.15	.68	1214.5	.36435
298.15	.801	1226.6	.36798
298.15	1	1238.4	.37152
303.15	0	1112.5	.33375
303.15	.0495	1120.4	.33612
303.15	.101	1130.4	.33912
303.15	.33	1164.5	.34935
303.15	.571	1195.5	.35865
303.15	.68	1211.2	.36336
303.15	.801	1223.3	.36699
303.15	1	1235.1	.37053
308.15	0	1109.5	.33285
308.15	.0495	1117.4	.33522
308.15	.101	1127.4	.33822
308.15	.33	1161.4	.34842
308.15	.571	1192.4	.35772
308.15	.68	1208	.3624
308.15	.801	1220.1	.36603
308.15	1	1231.7	.36951
313.15	0	1109.5	.33285
313.15	.0495	1117.4	.33522
313.15	.101	1127.4	.33822
313.15	.33	1161.4	.34842
313.15	.571	1192.4	.35772
313.15	.68	1208	.3624
313.15	.801	1220.1	.36603
313.15	1	1231.7	.36951
318.15	0	1106.5	.33195
318.15	.0495	1114.3	.33429
318.15	.101	1124.4	.33732
318.15	.33	1158.5	.34755
318.15	.571	1189.2	.35676
318.15	.68	1204.8	.36144
318.15	.801	1216.9	.36507
318.15	1	1228.4	.36852
323.15	0	1100.6	.33018
323.15	.0495	1108.3	.33249
323.15	.101	1118.2	.33546
323.15	.33	1152.4	.34572
323.15	.571	1183	.3549
323.15	.68	1198.5	.35955
323.15	.801	1210.5	.36315
323.15	1	1221.9	.36657
328.15	0	1097.7	.32931
328.15	.0495	1105.3	.33159
328.15	.101	1115.1	.33453
328.15	.33	1149.4	.34482
328.15	.571	1179.9	.35397
328.15	.68	1195.3	.35859
328.15	.801	1207.3	.36219
328.15	1	1218.7	.36561
333.15	0	1094.8	.32844
333.15	.0495	1102.4	.33072
333.15	.101	1112.1	.33363
333.15	.33	1146.3	.34389
333.15	.571	1176.7	.35301
333.15	.68	1192.3	.35769
333.15	.801	1204.2	.36126
333.15	1	1215.5	.36465
338.15	0	1091.9	.32757
338.15	.0495	1099.4	.32982
338.15	.101	1108.9	.33267
338.15	.33	1143.2	.34296
338.15	.571	1173.6	.35208
338.15	.68	1189.1	.35673
338.15	.801	1201	.3603
338.15	1	1212.2	.36366
343.15	0	1088.9	.32667
343.15	.0495	1096.5	.32895
343.15	.101	1105.7	.33171
343.15	.33	1140.1	.34203
343.15	.571	1170.4	.35112
343.15	.68	1186	.3558
343.15	.801	1197.8	.35934
343.15	1	1208.9	.36267
348.15	0	1085.9	.32577
348.15	.0495	1093.5	.32805
348.15	.101	1102.6	.33078
348.15	.33	1137	.3411
348.15	.571	1167.1	.35013
348.15	.68	1182.9	.35487
348.15	.801	1194.5	.35835
348.15	1	1205.4	.36162
353.15	0	1082.7	.32481
353.15	.0495	1090.6	.32718
353.15	.101	1099.7	.32991
353.15	.33	1133.9	.34017
353.15	.571	1163.8	.34914
353.15	.68	1179.8	.35394
353.15	.801	1191	.3573
353.15	1	1201.8	.36054

System: 1-ethyl-3-methylimidazolium thiocyanate + 1-ethyl-3-methylimidazolium ethyl sulfate; phases: Liquid
Fixed: Pressure, kPa = 100
Property: Electrical conductivity, S/m (Liquid); method: Alternating current cell with electrodes
Temperature, K	Mole fraction of 1-ethyl-3-methylimidazolium ethyl sulfate	Electrical conductivity, S/m	uncertainty
298.15	0	2.317	.04634
298.15	.0495	2.097	.04194
298.15	.101	1.836	.03672
298.15	.33	1.16	.0232
298.15	.571	.745	.0149
298.15	.68	.569	.01138
298.15	.801	.421	.00842
298.15	1	.308	.00616
303.15	0	2.67	.0534
303.15	.0495	2.292	.04584
303.15	.101	2.152	.04304
303.15	.33	1.375	.0275
303.15	.571	.809	.01618
303.15	.68	.696	.01392
303.15	.801	.512	.01024
303.15	1	.382	.00764
308.15	0	3.055	.0611
308.15	.0495	2.787	.05574
308.15	.101	2.495	.0499
308.15	.33	1.618	.03236
308.15	.571	1.089	.02178
308.15	.68	.842	.01684
308.15	.801	.688	.01376
308.15	1	.469	.00938
313.15	0	3.466	.06932
313.15	.0495	3.178	.06356
313.15	.101	2.852	.05704
313.15	.33	1.878	.03756
313.15	.571	1.194	.02388
313.15	.68	1.004	.02008
313.15	.801	.733	.01466
313.15	1	.57	.0114
318.15	0	3.915	.0783
318.15	.0495	3.604	.07208
318.15	.101	3.249	.06498
318.15	.33	2.179	.04358
318.15	.571	1.288	.02576
318.15	.68	1.188	.02376
318.15	.801	.861	.01722
318.15	1	.678	.01356
323.15	0	4.383	.08766
323.15	.0495	4.042	.08084
323.15	.101	3.663	.07326
323.15	.33	2.492	.04984
323.15	.571	1.516	.03032
323.15	.68	1.383	.02766
323.15	.801	1.023	.02046
323.15	1	.871	.01742

System: ammonium thiocyanate + 1-ethyl-3-methylimidazolium thiocyanate; phases: Liquid
Fixed: Pressure, kPa = 100
Property: Mass density, kg/m3 (Liquid); method: Vibrating tube method
Temperature, K	Mole fraction of ammonium thiocyanate	Mass density, kg/m3	uncertainty
298.15	0	1115.6	.33468
298.15	.039	1115.8	.33474
298.15	.099	1116.8	.33504
298.15	.1395	1116	.3348
318.15	0	1103.6	.33108
318.15	.039	1103.8	.33114
318.15	.099	1104.9	.33147
318.15	.1395	1104	.3312
338.15	0	1091.9	.32757
338.15	.039	1092	.3276
338.15	.099	1093.4	.32802
338.15	.1395	1092.6	.32778
303.15	0	1112.5	.33375
303.15	.039	1112.7	.33381
303.15	.099	1113.8	.33414
303.15	.1395	1113	.3339
323.15	0	1100.6	.33018
323.15	.039	1100.9	.33027
323.15	.099	1102	.3306
323.15	.1395	1101.2	.33036
343.15	0	1088.9	.32667
343.15	.039	1089	.3267
343.15	.099	1090.5	.32715
343.15	.1395	1089.9	.32697
308.15	0	1109.5	.33285
308.15	.039	1109.7	.33291
308.15	.099	1110.8	.33324
308.15	.1395	1110	.333
328.15	0	1097.7	.32931
328.15	.039	1098	.3294
328.15	.099	1099.1	.32973
328.15	.1395	1098.4	.32952
348.15	0	1085.8	.32574
348.15	.039	1085.9	.32577
348.15	.099	1087.6	.32628
348.15	.1395	1087.1	.32613
313.15	0	1106.5	.33195
313.15	.039	1106.7	.33201
313.15	.099	1107.8	.33234
313.15	.1395	1107	.3321
333.15	0	1094.8	.32844
333.15	.039	1095	.3285
333.15	.099	1096.2	.32886
333.15	.1395	1095.5	.32865
353.15	0	1082.6	.32478
353.15	.039	1082.7	.32481
353.15	.099	1084.7	.32541
353.15	.1395	1084.2	.32526

System: ammonium thiocyanate + 1-ethyl-3-methylimidazolium thiocyanate; phases: Liquid
Fixed: Pressure, kPa = 100
Property: Viscosity, Pa*s (Liquid); method: Concentric cylinders viscometry
Temperature, K	Mole fraction of ammonium thiocyanate	Viscosity, Pa*s	uncertainty
298.15	0	.023062	.00046124
298.15	.039	.025912	.00051824
298.15	.099	.029912	.00059824
298.15	.1395	.031581	.00063162
318.15	0	.012976	.00025952
318.15	.039	.014279	.00028558
318.15	.099	.016001	.00032002
318.15	.1395	.016712	.00033424
338.15	0	.008297	.00016594
338.15	.039	.00901	.0001802
338.15	.099	.0099	.000198
338.15	.1395	.010241	.00020482
303.15	0	.019677	.00039354
303.15	.039	.021967	.00043934
303.15	.099	.025158	.00050316
303.15	.1395	.026486	.00052972
323.15	0	.011488	.00022976
323.15	.039	.012592	.00025184
323.15	.099	.014027	.00028054
323.15	.1395	.014615	.0002923
343.15	0	.007532	.00015064
343.15	.039	.008156	.00016312
343.15	.099	.008914	.00017828
343.15	.1395	.009195	.0001839
308.15	0	.016972	.00033944
308.15	.039	.018843	.00037686
308.15	.099	.0214	.000428
308.15	.1395	.022473	.00044946
328.15	0	.010246	.00020492
328.15	.039	.011188	.00022376
328.15	.099	.012405	.0002481
328.15	.1395	.012876	.00025752
348.15	0	.006869	.00013738
348.15	.039	.007423	.00014846
348.15	.099	.008076	.00016152
348.15	.1395	.008317	.00016634
313.15	0	.014543	.00029086
313.15	.039	.016107	.00032214
313.15	.099	.018209	.00036418
313.15	.1395	.019095	.0003819
333.15	0	.009019	.00018038
333.15	.039	.009852	.00019704
333.15	.099	.010923	.00021846
333.15	.1395	.011332	.00022664
353.15	0	.006169	.00012338
353.15	.039	.006683	.00013366
353.15	.099	.007276	.00014552
353.15	.1395	.007484	.00014968

System: ammonium thiocyanate + 1-ethyl-3-methylimidazolium thiocyanate; phases: Liquid
Fixed: Pressure, kPa = 100
Property: Electrical conductivity, S/m (Liquid); method: Alternating current cell with electrodes
Temperature, K	Mole fraction of ammonium thiocyanate	Electrical conductivity, S/m	uncertainty
298.15	0	2.317	.04634
298.15	.039	2.066	.04132
298.15	.099	2.047	.04094
298.15	.1395	1.865	.0373
303.15	0	2.67	.0534
303.15	.039	2.384	.04768
303.15	.099	2.369	.04738
303.15	.1395	2.174	.04348
308.15	0	3.055	.0611
308.15	.039	2.724	.05448
308.15	.099	2.721	.05442
308.15	.1395	2.498	.04996
313.15	0	3.466	.06932
313.15	.039	3.121	.06242
313.15	.099	3.113	.06226
313.15	.1395	2.883	.05766
318.15	0	3.915	.0783
318.15	.039	3.516	.07032
318.15	.099	3.518	.07036
318.15	.1395	3.284	.06568
323.15	0	4.383	.08766
323.15	.039	3.966	.07932
323.15	.099	3.98	.0796
323.15	.1395	3.71	.0742
