Measured thermophysical data. Ionic liquids as entrainers for the separation of the ethanol/water system
Source: Fluid Phase Equilib., 2014, 10.1016/j.fluid.2014.07.022
Compound 1: ethanol, C2H6O, purity 99%
Compound 2: water, H2O, purity 99.8%
Compound 3: 1-butyl-3-methylimidazolium bromide, C8H15BrN2
Compound 4: 1-ethyl-3-methylimidazolium bromide, C6H11BrN2

System: ethanol + water; phases: Liquid, Gas
Property: Boiling temperature at pressure P, K (Liquid); method: Ebulliometric method (Recirculating still)
Mole fraction of ethanol	Pressure, kPa	Boiling temperature at pressure P, K	uncertainty
.683	101.3	351.85	.01
.738	101.3	351.71	.01
.782	101.3	351.56	.01
.837	101.3	351.49	.01
.881	101.3	351.42	.01
.943	101.3	351.45	.01
.96	101.3	351.47	.01

System: ethanol + water; phases: Gas, Liquid
Property: Mole fraction of ethanol (Gas); method: Titration method
Mole fraction of ethanol	Pressure, kPa	Mole fraction of ethanol	uncertainty
.683	101.3	.742	.01
.738	101.3	.775	.01
.782	101.3	.801	.01
.837	101.3	.843	.01
.881	101.3	.881	.01
.943	101.3	.937	.01
.96	101.3	.954	.01

System: ethanol + water + 1-butyl-3-methylimidazolium bromide; phases: Liquid, Gas
Property: Boiling temperature at pressure P, K (Liquid); method: Ebulliometric method (Recirculating still)
Pressure, kPa	Solvent: Mole fraction of ethanol	Mass fraction of 1-butyl-3-methylimidazolium bromide	Boiling temperature at pressure P, K	uncertainty
101.3	.689	.0682	351.87	.01
101.3	.783	.0596	351.67	.01
101.3	.834	.067	351.6	.01
101.3	.883	.0512	351.52	.01
101.3	.938	.0584	351.54	.01
101.3	.971	.0558	351.66	.01
101.3	.671	.11	352.2	.01
101.3	.77	.114	351.75	.01
101.3	.827	.107	351.64	.01
101.3	.878	.111	351.63	.01
101.3	.928	.101	351.65	.01
101.3	.968	.106	351.69	.01
101.3	.661	.172	352.8	.01
101.3	.775	.172	352.05	.01
101.3	.83	.171	352.01	.01
101.3	.883	.172	351.96	.01
101.3	.933	.162	351.99	.01
101.3	.971	.162	352.04	.01
66.6	.682	.0658	341.88	.01
66.6	.783	.0603	341.59	.01
66.6	.833	.0674	341.53	.01
66.6	.881	.0574	341.46	.01
66.6	.94	.062	341.47	.01
66.6	.971	.058	341.58	.01
66.6	.666	.117	342.18	.01
66.6	.767	.117	341.75	.01
66.6	.823	.113	341.64	.01
66.6	.878	.119	341.63	.01
66.6	.924	.107	341.66	.01
66.6	.968	.112	341.73	.01
66.6	.657	.176	342.96	.01
66.6	.774	.176	342.28	.01
66.6	.829	.173	342.21	.01
66.6	.882	.178	342.15	.01
66.6	.929	.169	342.17	.01
66.6	.971	.164	342.22	.01

System: ethanol + water + 1-butyl-3-methylimidazolium bromide; phases: Gas, Liquid
Property: Mole fraction of ethanol (Gas); method: Titration method
Pressure, kPa	Solvent: Mole fraction of ethanol	Mass fraction of 1-butyl-3-methylimidazolium bromide	Mole fraction of ethanol	uncertainty
101.3	.689	.0682	.756	.01
101.3	.783	.0596	.815	.01
101.3	.834	.067	.852	.01
101.3	.883	.0512	.889	.01
101.3	.938	.0584	.94	.01
101.3	.971	.0558	.97	.01
101.3	.671	.11	.751	.01
101.3	.77	.114	.813	.01
101.3	.827	.107	.848	.01
101.3	.878	.111	.89	.01
101.3	.928	.101	.931	.01
101.3	.968	.106	.969	.01
101.3	.661	.172	.756	.01
101.3	.775	.172	.823	.01
101.3	.83	.171	.861	.01
101.3	.883	.172	.902	.01
101.3	.933	.162	.942	.01
101.3	.971	.162	.973	.01
66.6	.682	.0658	.751	.01
66.6	.783	.0603	.815	.01
66.6	.833	.0674	.853	.01
66.6	.881	.0574	.889	.01
66.6	.94	.062	.943	.01
66.6	.971	.058	.971	.01
66.6	.666	.117	.748	.01
66.6	.767	.117	.811	.01
66.6	.823	.113	.854	.01
66.6	.878	.119	.892	.01
66.6	.924	.107	.93	.01
66.6	.968	.112	.971	.01
66.6	.657	.176	.755	.01
66.6	.774	.176	.825	.01
66.6	.829	.173	.865	.01
66.6	.882	.178	.903	.01
66.6	.929	.169	.942	.01
66.6	.971	.164	.975	.01

System: ethanol + water + 1-butyl-3-methylimidazolium bromide; phases: Gas, Liquid
Property: Mole fraction of water (Gas); method: Titration method
Pressure, kPa	Solvent: Mole fraction of ethanol	Mass fraction of 1-butyl-3-methylimidazolium bromide	Mole fraction of water	uncertainty
101.3	.689	.0682	.244	.01
101.3	.783	.0596	.185	.01
101.3	.834	.067	.148	.01
101.3	.883	.0512	.111	.01
101.3	.938	.0584	.06	.01
101.3	.971	.0558	.03	.01
101.3	.671	.11	.249	.01
101.3	.77	.114	.187	.01
101.3	.827	.107	.152	.01
101.3	.878	.111	.11	.01
101.3	.928	.101	.069	.01
101.3	.968	.106	.031	.01
101.3	.661	.172	.244	.01
101.3	.775	.172	.177	.01
101.3	.83	.171	.139	.01
101.3	.883	.172	.098	.01
101.3	.933	.162	.058	.01
101.3	.971	.162	.027	.01
66.6	.682	.0658	.249	.01
66.6	.783	.0603	.185	.01
66.6	.833	.0674	.147	.01
66.6	.881	.0574	.111	.01
66.6	.94	.062	.057	.01
66.6	.971	.058	.029	.01
66.6	.666	.117	.252	.01
66.6	.767	.117	.189	.01
66.6	.823	.113	.146	.01
66.6	.878	.119	.108	.01
66.6	.924	.107	.07	.01
66.6	.968	.112	.029	.01
66.6	.657	.176	.245	.01
66.6	.774	.176	.175	.01
66.6	.829	.173	.135	.01
66.6	.882	.178	.097	.01
66.6	.929	.169	.058	.01
66.6	.971	.164	.025	.01

System: ethanol + water + 1-ethyl-3-methylimidazolium bromide; phases: Liquid, Gas
Property: Boiling temperature at pressure P, K (Liquid); method: Ebulliometric method (Recirculating still)
Pressure, kPa	Solvent: Mole fraction of ethanol	Mass fraction of 1-ethyl-3-methylimidazolium bromide	Boiling temperature at pressure P, K	uncertainty
101.3	.68	.0525	351.95	.01
101.3	.781	.0562	351.66	.01
101.3	.83	.0542	351.61	.01
101.3	.883	.056	351.59	.01
101.3	.936	.0577	351.63	.01
101.3	.967	.0547	351.65	.01
101.3	.669	.106	351.96	.01
101.3	.764	.108	351.82	.01
101.3	.825	.108	351.7	.01
101.3	.881	.115	351.63	.01
101.3	.933	.112	351.77	.01
101.3	.963	.111	351.88	.01
101.3	.645	.173	352.37	.01
101.3	.755	.169	352.13	.01
101.3	.811	.175	352.03	.01
101.3	.868	.169	351.95	.01
101.3	.928	.175	352.03	.01
101.3	.96	.162	352.1	.01
66.6	.675	.0543	341.81	.01
66.6	.781	.0571	341.59	.01
66.6	.831	.0567	341.53	.01
66.6	.883	.0573	341.48	.01
66.6	.936	.0549	341.5	.01
66.6	.967	.0559	341.53	.01
66.6	.669	.106	341.97	.01
66.6	.765	.11	341.8	.01
66.6	.827	.11	341.72	.01
66.6	.881	.119	341.7	.01
66.6	.932	.117	341.85	.01
66.6	.963	.113	341.89	.01
66.6	.645	.175	342.43	.01
66.6	.758	.168	342.18	.01
66.6	.812	.176	342.06	.01
66.6	.869	.168	341.96	.01
66.6	.929	.178	342.1	.01
66.6	.956	.167	342.18	.01

System: ethanol + water + 1-ethyl-3-methylimidazolium bromide; phases: Gas, Liquid
Property: Mole fraction of ethanol (Gas); method: Titration method
Pressure, kPa	Solvent: Mole fraction of ethanol	Mass fraction of 1-ethyl-3-methylimidazolium bromide	Mole fraction of ethanol	uncertainty
101.3	.68	.0525	.746	.01
101.3	.781	.0562	.813	.01
101.3	.83	.0542	.85	.01
101.3	.883	.056	.891	.01
101.3	.936	.0577	.938	.01
101.3	.967	.0547	.966	.01
101.3	.669	.106	.753	.01
101.3	.764	.108	.811	.01
101.3	.825	.108	.854	.01
101.3	.881	.115	.9	.01
101.3	.933	.112	.939	.01
101.3	.963	.111	.966	.01
101.3	.645	.173	.753	.01
101.3	.755	.169	.818	.01
101.3	.811	.175	.856	.01
101.3	.868	.169	.895	.01
101.3	.928	.175	.939	.01
101.3	.96	.162	.964	.01
66.6	.675	.0543	.752	.01
66.6	.781	.0571	.815	.01
66.6	.831	.0567	.854	.01
66.6	.883	.0573	.894	.01
66.6	.936	.0549	.939	.01
66.6	.967	.0559	.968	.01
66.6	.669	.106	.755	.01
66.6	.765	.11	.819	.01
66.6	.827	.11	.859	.01
66.6	.881	.119	.9	.01
66.6	.932	.117	.942	.01
66.6	.963	.113	.968	.01
66.6	.645	.175	.756	.01
66.6	.758	.168	.821	.01
66.6	.812	.176	.861	.01
66.6	.869	.168	.899	.01
66.6	.929	.178	.945	.01
66.6	.956	.167	.965	.01

System: ethanol + water + 1-ethyl-3-methylimidazolium bromide; phases: Gas, Liquid
Property: Mole fraction of water (Gas); method: Titration method
Pressure, kPa	Solvent: Mole fraction of ethanol	Mass fraction of 1-ethyl-3-methylimidazolium bromide	Mole fraction of water	uncertainty
101.3	.68	.0525	.254	.01
101.3	.781	.0562	.187	.01
101.3	.83	.0542	.15	.01
101.3	.883	.056	.109	.01
101.3	.936	.0577	.062	.01
101.3	.967	.0547	.034	.01
101.3	.669	.106	.247	.01
101.3	.764	.108	.189	.01
101.3	.825	.108	.146	.01
101.3	.881	.115	.1	.01
101.3	.933	.112	.061	.01
101.3	.963	.111	.034	.01
101.3	.645	.173	.247	.01
101.3	.755	.169	.182	.01
101.3	.811	.175	.144	.01
101.3	.868	.169	.105	.01
101.3	.928	.175	.061	.01
101.3	.96	.162	.036	.01
66.6	.675	.0543	.248	.01
66.6	.781	.0571	.185	.01
66.6	.831	.0567	.146	.01
66.6	.883	.0573	.106	.01
66.6	.936	.0549	.061	.01
66.6	.967	.0559	.032	.01
66.6	.669	.106	.245	.01
66.6	.765	.11	.181	.01
66.6	.827	.11	.141	.01
66.6	.881	.119	.1	.01
66.6	.932	.117	.058	.01
66.6	.963	.113	.032	.01
66.6	.645	.175	.244	.01
66.6	.758	.168	.179	.01
66.6	.812	.176	.139	.01
66.6	.869	.168	.101	.01
66.6	.929	.178	.055	.01
66.6	.956	.167	.035	.01
