Measured thermophysical data. Solubility of diazepam in water + tert-butyl alcohol solvent mixtures: Part 1. Experimental data and thermodynamic analysis
Source: Fluid Phase Equilib., 2016, 10.1016/j.fluid.2015.10.024
Compound 1: diazepam, C16H13ClN2O, purity 99.8%
Compound 2: tert-butyl alcohol, C4H10O, purity 99%
Compound 3: water, H2O, purity 99.9%

System: diazepam; phases: Crystal, Liquid, Air at 1 atmosphere
Property: Normal melting temperature, K (Crystal); method: DSC/DTA
Normal melting temperature, K	uncertainty
404.12	.02

System: diazepam; phases: Crystal, Liquid, Air at 1 atmosphere
Property: Molar enthalpy of transition or fusion, kJ/mol (Crystal); method: DSC
Molar enthalpy of transition or fusion, kJ/mol	uncertainty
26.17	.14

System: tert-butyl alcohol + diazepam + water; phases: Liquid
Fixed: Pressure, kPa = 101
Property: Mass density, kg/m3 (Liquid); method: Vibrating tube method
Solvent: Mass fraction of tert-butyl alcohol	Mole fraction of diazepam	Temperature, K	Mass density, kg/m3	uncertainty
0	0	293.15	998.2	.05
.1	0	293.15	983.45	.05
.2	0	293.15	969.13	.05
.3	0	293.15	947.86	.05
.4	0	293.15	923.58	.05
.5	0	293.15	900.76	.05
.6	0	293.15	876.93	.05
.7	0	293.15	855.92	.05
.8	0	293.15	831.61	.05
.9	0	293.15	807.84	.05
0	.000002688	293.15	998.2	.05
.1	.00000779	293.15	983.45	.05
.2	.00005755	293.15	969.53	.05
.3	.0004866	293.15	950.17	.05
.4	.001217	293.15	929.47	.05
.5	.00225	293.15	908.94	.05
.6	.003497	293.15	888.15	.05
.7	.005162	293.15	867.49	.05
.8	.00682	293.15	845.54	.05
.9	.007647	293.15	821.3	.05
0	0	299.15	996.79	.05
.1	0	299.15	981.54	.05
.2	0	299.15	965.55	.05
.3	0	299.15	943.47	.05
.4	0	299.15	918.93	.05
.5	0	299.15	895.93	.05
.6	0	299.15	871.94	.05
.7	0	299.15	850.81	.05
.8	0	299.15	826.28	.05
.9	0	299.15	802.31	.05
1	0	299.15	779.48	.05
0	.00000301	299.15	996.79	.05
.1	.00001033	299.15	981.54	.05
.2	.00011	299.15	966.32	.05
.3	.0006271	299.15	946.36	.05
.4	.001539	299.15	926.33	.05
.5	.002863	299.15	905.24	.05
.6	.004321	299.15	885.38	.05
.7	.006187	299.15	865.27	.05
.8	.008287	299.15	843.85	.05
.9	.009179	299.15	818.77	.05
1	.006342	299.15	787.58	.05
0	0	303.15	995.66	.05
.1	0	303.15	980.07	.05
.2	0	303.15	963.05	.05
.3	0	303.15	940.49	.05
.4	0	303.15	915.75	.05
.5	0	303.15	892.62	.05
.6	0	303.15	868.53	.05
.7	0	303.15	847.3	.05
.8	0	303.15	822.65	.05
.9	0	303.15	798.53	.05
1	0	303.15	775.49	.05
0	.000003604	303.15	995.67	.05
.1	.00001407	303.15	980.22	.05
.2	.0001643	303.15	964.38	.05
.3	.0008186	303.15	944.28	.05
.4	.001873	303.15	923.46	.05
.5	.003456	303.15	902.91	.05
.6	.005531	303.15	883	.05
.7	.008047	303.15	863.99	.05
.8	.01075	303.15	842.66	.05
.9	.01208	303.15	816.92	.05
1	.007618	303.15	784.97	.05
0	0	308.15	994.05	.05
.1	0	308.15	978.02	.05
.2	0	308.15	959.83	.05
.3	0	308.15	936.74	.05
.4	0	308.15	911.73	.05
.5	0	308.15	888.44	.05
.6	0	308.15	864.21	.05
.7	0	308.15	842.86	.05
.8	0	308.15	818.04	.05
.9	0	308.15	793.73	.05
1	0	308.15	770.28	.05
0	.000003973	308.15	994.06	.05
.1	.00001708	308.15	978.16	.05
.2	.0002236	308.15	961.47	.05
.3	.0009889	308.15	940.73	.05
.4	.00226	308.15	920.48	.05
.5	.004088	308.15	901.08	.05
.6	.00634	308.15	882.43	.05
.7	.00922	308.15	863.19	.05
.8	.01247	308.15	842.77	.05
.9	.01385	308.15	816.88	.05
1	.009277	308.15	782.37	.05
0	0	313.15	992.24	.05
.1	0	313.15	975.76	.05
.2	0	313.15	956.51	.05
.3	0	313.15	932.94	.05
.4	0	313.15	907.67	.05
.5	0	313.15	884.21	.05
.6	0	313.15	859.81	.05
.7	0	313.15	838.33	.05
.8	0	313.15	813.34	.05
.9	0	313.15	788.85	.05
1	0	313.15	764.98	.05
0	.00000486	313.15	992.25	.05
.1	.00002358	313.15	975.95	.05
.2	.0002914	313.15	958.2	.05
.3	.001332	313.15	937.42	.05
.4	.00286	313.15	917.5	.05
.5	.005239	313.15	897.88	.05
.6	.008172	313.15	880.64	.05
.7	.01154	313.15	862.67	.05
.8	.01519	313.15	842.3	.05
.9	.01689	313.15	814.44	.05
1	.01195	313.15	779.26	.05

System: tert-butyl alcohol + diazepam + water; phases: Liquid, Crystal
Fixed: Pressure, kPa = 101
Property: Mole fraction of diazepam (Liquid); method: Chromatography
Solvent: Mass fraction of tert-butyl alcohol	Temperature, K	Mole fraction of diazepam	uncertainty
0	293.15	.000002688	.000000028
.1	293.15	.00000779	.000000708
.2	293.15	.00005755	.00000512
.3	293.15	.0004866	.0000338
.4	293.15	.001217	.000068
.5	293.15	.00225	.000114
.6	293.15	.003497	.000108
.7	293.15	.005162	.00033
.8	293.15	.00682	.000214
.9	293.15	.007647	.000216
0	299.15	.00000301	.000000066
.1	299.15	.00001033	.00000008
.2	299.15	.00011	.0000044
.3	299.15	.0006271	.0000162
.4	299.15	.001539	.000018
.5	299.15	.002863	.000078
.6	299.15	.004321	.000254
.7	299.15	.006187	.000232
.8	299.15	.008287	.00024
.9	299.15	.009179	.000164
1	299.15	.006342	.00078
0	303.15	.000003604	.000000072
.1	303.15	.00001407	.0000002
.2	303.15	.0001643	.0000068
.3	303.15	.0008186	.0000358
.4	303.15	.001873	.000086
.5	303.15	.003456	.00014
.6	303.15	.005531	.000106
.7	303.15	.008047	.000248
.8	303.15	.01075	.00022
.9	303.15	.01208	.00048
1	303.15	.007618	.00434
0	308.15	.000003973	.000000024
.1	308.15	.00001708	.00000026
.2	308.15	.0002236	.0000046
.3	308.15	.0009889	.0000344
.4	308.15	.00226	.000054
.5	308.15	.004088	.000094
.6	308.15	.00634	.000015
.7	308.15	.00922	.000025
.8	308.15	.01247	.00086
.9	308.15	.01385	.00014
1	308.15	.009277	.000186
0	313.15	.00000486	.00000012
.1	313.15	.00002358	.0000014
.2	313.15	.0002914	.0000142
.3	313.15	.001332	.000094
.4	313.15	.00286	.000246
.5	313.15	.005239	.000208
.6	313.15	.008172	.000338
.7	313.15	.01154	.00004
.8	313.15	.01519	.000052
.9	313.15	.01689	.000138
1	313.15	.01195	.000068
