Measured thermophysical data. Spectroscopic and ultrasonic studies on the molecular interaction of certain aromatic amines  with p-chloranil
Source: Fluid Phase Equilib., 2013, 10.1016/j.fluid.2013.09.026
Compound 1: DMSO, C2H6OS, purity 99.8%
Compound 2: aniline, C6H7N, purity 98%
Compound 3: o-toluidine, C7H9N, purity 98%
Compound 4: N-methylaniline, C7H9N, purity 98%
Compound 5: N,N-dimethylaniline, C8H11N, purity 98%
Compound 6: p-chloranil, C6Cl4O2, purity 99.5%

System: DMSO + p-chloranil; phases: Liquid
Fixed: Pressure, kPa = 101
Fixed: Temperature, K = 303
Property: Mass density, kg/m3 (Liquid); method: Pycnometric method
Amount concentration (molarity), mol/dm3 of p-chloranil	Mass density, kg/m3	uncertainty
.002	1091.4	.1
.004	1091.6	.1
.006	1091.9	.1
.008	1091.9	.1
.01	1092.1	.1
.012	1091.6	.1
.014	1091.4	.1
.016	1091.2	.1
.018	1091.7	.1
.02	1091.7	.1

System: DMSO + p-chloranil; phases: Liquid
Fixed: Pressure, kPa = 101
Fixed: Temperature, K = 303
Property: Speed of sound, m/s (Liquid); method: Linear variable-path acoustic interferometer
Amount concentration (molarity), mol/dm3 of p-chloranil	Speed of sound, m/s	uncertainty
.002	1472.4	1
.004	1472.6	1
.006	1471.9	1
.008	1471.3	1
.01	1471.6	1
.012	1470.3	1
.014	1467.1	1
.016	1468.3	1
.018	1468.5	1
.02	1468.7	1

System: DMSO + p-chloranil; phases: Liquid
Fixed: Pressure, kPa = 101
Fixed: Temperature, K = 303
Property: Viscosity, Pa*s (Liquid); method: Capillary tube (Ostwald; Ubbelohde) method
Amount concentration (molarity), mol/dm3 of p-chloranil	Viscosity, Pa*s	uncertainty
.002	.001756	.000001
.004	.001757	.000001
.006	.001758	.000001
.008	.001773	.000001
.01	.001769	.000001
.012	.001767	.000001
.014	.00176	.000001
.016	.001756	.000001
.018	.001767	.000001
.02	.001769	.000001

System: aniline + DMSO; phases: Liquid
Fixed: Pressure, kPa = 101
Fixed: Temperature, K = 303
Property: Mass density, kg/m3 (Liquid); method: Pycnometric method
Amount concentration (molarity), mol/dm3 of aniline	Mass density, kg/m3	uncertainty
.002	1090.4	.1
.004	1090.6	.1
.006	1090.7	.1
.008	1090.2	.1
.01	1090.6	.1
.012	1090.4	.1
.014	1090.5	.1
.016	1090.3	.1
.018	1090.4	.1
.02	1090.6	.1

System: aniline + DMSO; phases: Liquid
Fixed: Pressure, kPa = 101
Fixed: Temperature, K = 303
Property: Speed of sound, m/s (Liquid); method: Linear variable-path acoustic interferometer
Amount concentration (molarity), mol/dm3 of aniline	Speed of sound, m/s	uncertainty
.002	1471.6	1
.004	1473.9	1
.006	1473.4	1
.008	1472.7	1
.01	1474.1	1
.012	1473.7	1
.014	1472.7	1
.016	1472.8	1
.018	1473	1
.02	1474	1

System: aniline + DMSO; phases: Liquid
Fixed: Pressure, kPa = 101
Fixed: Temperature, K = 303
Property: Viscosity, Pa*s (Liquid); method: Capillary tube (Ostwald; Ubbelohde) method
Amount concentration (molarity), mol/dm3 of aniline	Viscosity, Pa*s	uncertainty
.002	.001789	.000001
.004	.001798	.000001
.006	.00179	.000001
.008	.00179	.000001
.01	.001806	.000001
.012	.001777	.000001
.014	.001802	.000001
.016	.001819	.000001
.018	.00179	.000001
.02	.001792	.000001

System: DMSO + o-toluidine; phases: Liquid
Fixed: Pressure, kPa = 101
Fixed: Temperature, K = 303
Property: Mass density, kg/m3 (Liquid); method: Pycnometric method
Amount concentration (molarity), mol/dm3 of o-toluidine	Mass density, kg/m3	uncertainty
.002	1090.8	.1
.004	1090.4	.1
.006	1090.5	.1
.008	1089.6	.1
.01	1089.5	.1
.012	1090	.1
.014	1089.7	.1
.016	1089.8	.1
.018	1089.4	.1
.02	1090.3	.1

System: DMSO + o-toluidine; phases: Liquid
Fixed: Pressure, kPa = 101
Fixed: Temperature, K = 303
Property: Speed of sound, m/s (Liquid); method: Linear variable-path acoustic interferometer
Amount concentration (molarity), mol/dm3 of o-toluidine	Speed of sound, m/s	uncertainty
.002	1471.4	1
.004	1471.8	1
.006	1472	1
.008	1471.2	1
.01	1472.6	1
.012	1473.5	1
.014	1472.5	1
.016	1471.9	1
.018	1473	1
.02	1473.9	1

System: DMSO + o-toluidine; phases: Liquid
Fixed: Pressure, kPa = 101
Fixed: Temperature, K = 303
Property: Viscosity, Pa*s (Liquid); method: Capillary tube (Ostwald; Ubbelohde) method
Amount concentration (molarity), mol/dm3 of o-toluidine	Viscosity, Pa*s	uncertainty
.002	.001713	.000001
.004	.001713	.000001
.006	.001723	.000001
.008	.001718	.000001
.01	.00172	.000001
.012	.001723	.000001
.014	.001718	.000001
.016	.001724	.000001
.018	.001733	.000001
.02	.001723	.000001

System: DMSO + N-methylaniline; phases: Liquid
Fixed: Pressure, kPa = 101
Fixed: Temperature, K = 303
Property: Mass density, kg/m3 (Liquid); method: Pycnometric method
Amount concentration (molarity), mol/dm3 of N-methylaniline	Mass density, kg/m3	uncertainty
.002	1.0908	.0001
.004	1.0904	.0001
.006	1.09	.0001
.008	1.0896	.0001
.01	1.0898	.0001
.012	1.09	.0001
.014	1.0897	.0001
.016	1.0898	.0001
.018	1.0898	.0001
.02	1.0901	.0001

System: DMSO + N-methylaniline; phases: Liquid
Fixed: Pressure, kPa = 101
Fixed: Temperature, K = 303
Property: Speed of sound, m/s (Liquid); method: Linear variable-path acoustic interferometer
Amount concentration (molarity), mol/dm3 of N-methylaniline	Speed of sound, m/s	uncertainty
.002	1471.6	1
.004	1471.8	1
.006	1472	1
.008	1471.2	1
.01	1471.7	1
.012	1473.5	1
.014	1472.5	1
.016	1471.9	1
.018	1473	1
.02	1473.9	1

System: DMSO + N-methylaniline; phases: Liquid
Fixed: Pressure, kPa = 101
Fixed: Temperature, K = 303
Property: Viscosity, Pa*s (Liquid); method: Capillary tube (Ostwald; Ubbelohde) method
Amount concentration (molarity), mol/dm3 of N-methylaniline	Viscosity, Pa*s	uncertainty
.002	.001713	.000001
.004	.001713	.000001
.006	.001723	.000001
.008	.001718	.000001
.01	.001724	.000001
.012	.001733	.000001
.014	.001723	.000001
.016	.001718	.000001
.018	.001718	.000001
.02	.00172	.000001

System: DMSO + N,N-dimethylaniline; phases: Liquid
Fixed: Pressure, kPa = 101
Fixed: Temperature, K = 303
Property: Mass density, kg/m3 (Liquid); method: Pycnometric method
Amount concentration (molarity), mol/dm3 of N,N-dimethylaniline	Mass density, kg/m3	uncertainty
.002	1.0907	.0001
.004	1.0904	.0001
.006	1.0907	.0001
.008	1.0906	.0001
.01	1.0899	.0001
.012	1.0896	.0001
.014	1.0901	.0001
.016	1.0898	.0001
.018	1.0903	.0001
.02	1.0902	.0001

System: DMSO + N,N-dimethylaniline; phases: Liquid
Fixed: Pressure, kPa = 101
Fixed: Temperature, K = 303
Property: Speed of sound, m/s (Liquid); method: Linear variable-path acoustic interferometer
Amount concentration (molarity), mol/dm3 of N,N-dimethylaniline	Speed of sound, m/s	uncertainty
.002	1471.9	1
.004	1472.5	1
.006	1471.9	1
.008	1472.6	1
.01	1471.8	1
.012	1472.1	1
.014	1472.3	1
.016	1471.6	1
.018	1472.2	1
.02	1472	1

System: DMSO + N,N-dimethylaniline; phases: Liquid
Fixed: Pressure, kPa = 101
Fixed: Temperature, K = 303
Property: Viscosity, Pa*s (Liquid); method: Capillary tube (Ostwald; Ubbelohde) method
Amount concentration (molarity), mol/dm3 of N,N-dimethylaniline	Viscosity, Pa*s	uncertainty
.002	.001734	.000001
.004	.001725	.000001
.006	.001721	.000001
.008	.001731	.000001
.01	.001747	.000001
.012	.001724	.000001
.014	.00173	.000001
.016	.001731	.000001
.018	.001733	.000001
.02	.001732	.000001
