Measured thermophysical data. Capillary constant and surface tension of methane-nitrogen solutions: 1. Experiment
Source: Fluid Phase Equilib., 2011, 10.1016/j.fluid.2010.11.013
Compound 1: methane, CH4, purity 99.97%
Compound 2: nitrogen, N2, purity 99.999%

System: methane + nitrogen; phases: Liquid, Gas
Property: Surface tension liquid-gas, N/m (Liquid); method: Capillary rise
Temperature, K	Pressure, kPa	Surface tension liquid-gas, N/m	uncertainty
95	20	.01624	.000406
95	87	.01463	.00036575
95	158	.01292	.000323
95	238	.01091	.00027275
95	301	.0093	.0002325
95	362	.00782	.0001955
95	426	.00658	.0001645
95	486	.00568	.000142
95	540	.00513	.00012825
105	43	.01431	.00035775
105	229	.01202	.0003005
105	402	.00965	.00024125
105	431	.00943	.00023575
105	596	.00732	.000183
105	721	.00595	.00014875
105	860	.00455	.00011375
105	1022	.00347	.00008675
105	1082	.00318	.0000795
120	190	.01132	.000283
120	439	.00963	.00024075
120	563	.00885	.00022125
120	905	.0071	.0001775
120	1341	.00461	.00011525
120	1818	.00243	.00006075
120	2330	.001	.000025
120	2358	.00093	.00002325
120	2503	.00066	.0000165
130	366	.00941	.00023525
130	769	.0076	.00019
130	867	.00722	.0001805
130	1304	.00551	.00013775
130	1330	.00548	.000137
130	1581	.00438	.0001095
130	1644	.00426	.0001065
130	1890	.00328	.000082
130	2254	.00223	.00005575
130	2343	.00205	.00005125
130	2461	.00179	.00004475
130	2993	.00068	.000017
130	3083	.00049	.00001225
140	640	.00754	.0001885
140	1045	.00623	.00015575
140	1065	.00625	.00015625
140	1086	.00613	.00015325
140	1826	.00412	.000103
140	2337	.00277	.00006925
140	2783	.0018	.000045
140	2975	.00143	.00003575
140	3002	.00135	.00003375
140	3165	.00112	.000028
140	3474	.00063	.00001575
140	3490	.00057	.00001425
150	1039	.00574	.0001435
150	1600	.00439	.00010975
150	1713	.00419	.00010475
150	1764	.00407	.00010175
150	2354	.00294	.0000735
150	2904	.00191	.00004775
150	3455	.00105	.00002625
150	3785	.00067	.00001675
160	1591	.00403	.00010075
160	2434	.00262	.0000655
160	3168	.00156	.000039
160	3191	.00152	.000038
160	3659	.00099	.00002475
170	2327	.00246	.0000615
170	3023	.00158	.0000395
170	3435	.00113	.00002825
170	3862	.00071	.00001775
