Measured thermophysical data. Equilibrium study and diversified models of drug Norfloxacin in eight pure organic and binary solvents at T = (278.15 to 328.15) K
Source: Fluid Phase Equilib., 2017, 10.1016/j.fluid.2016.12.012
Compound 1: norfloxacin, C16H18FN3O3, purity 99.0%
Compound 2: ethanol, C2H6O, purity 99.7%
Compound 3: 1-butanol, C4H10O, purity 99.5%
Compound 4: isopropanol, C3H8O, purity 99.7%
Compound 5: acetone, C3H6O, purity 99.5%
Compound 6: acetonitrile, C2H3N, purity 99.9%
Compound 7: ethyl acetate, C4H8O2, purity 99.7%
Compound 8: n-hexane, C6H14, purity 99.6%
Compound 9: N,N-dimethylformamide, C3H7NO, purity 99.7%

System: ethanol + norfloxacin; phases: Liquid, Crystal
Fixed: Pressure, kPa = 101
Property: Mole fraction of norfloxacin (Liquid); method: Chromatography
Temperature, K	Mole fraction of norfloxacin	uncertainty
278.15	.00088	
283.15	.00095	
288.15	.00104	
293.15	.00117	
298.15	.00132	
303.15	.00157	
308.15	.00182	
313.15	.00217	
318.15	.00264	
323.15	.00333	
328.15	.0041	

System: 1-butanol + norfloxacin; phases: Liquid, Crystal
Fixed: Pressure, kPa = 101
Property: Mole fraction of norfloxacin (Liquid); method: Chromatography
Temperature, K	Mole fraction of norfloxacin	uncertainty
278.15	.00097	
283.15	.00107	
288.15	.00119	
293.15	.00141	
298.15	.00154	
303.15	.00171	
308.15	.00189	
313.15	.00208	
318.15	.0023	
323.15	.00259	
328.15	.0032	

System: isopropanol + norfloxacin; phases: Liquid, Crystal
Fixed: Pressure, kPa = 101
Property: Mole fraction of norfloxacin (Liquid); method: Chromatography
Temperature, K	Mole fraction of norfloxacin	uncertainty
278.15	.00023	
283.15	.00029	
288.15	.00038	
293.15	.00047	
298.15	.00059	
303.15	.00075	
308.15	.0001	
313.15	.00134	
318.15	.0017	
323.15	.00213	
328.15	.00276	

System: acetone + norfloxacin; phases: Liquid, Crystal
Fixed: Pressure, kPa = 101
Property: Mole fraction of norfloxacin (Liquid); method: Chromatography
Temperature, K	Mole fraction of norfloxacin	uncertainty
278.15	.00088	
283.15	.00104	
288.15	.00121	
293.15	.00135	
298.15	.00152	
303.15	.00171	
308.15	.00194	
313.15	.00219	
318.15	.00249	
323.15	.00286	
328.15	.0032	

System: acetonitrile + norfloxacin; phases: Liquid, Crystal
Fixed: Pressure, kPa = 101
Property: Mole fraction of norfloxacin (Liquid); method: Chromatography
Temperature, K	Mole fraction of norfloxacin	uncertainty
278.15	.00016	
283.15	.00023	
288.15	.00032	
293.15	.00041	
298.15	.00052	
303.15	.00066	
308.15	.00079	
313.15	.00097	
318.15	.00116	
323.15	.00128	
328.15	.00138	

System: ethyl acetate + norfloxacin; phases: Liquid, Crystal
Fixed: Pressure, kPa = 101
Property: Mole fraction of norfloxacin (Liquid); method: Chromatography
Temperature, K	Mole fraction of norfloxacin	uncertainty
278.15	.00014	
283.15	.00028	
288.15	.00031	
293.15	.00042	
298.15	.00061	
303.15	.00072	
308.15	.00093	
313.15	.00122	
318.15	.00155	
323.15	.002	
328.15	.00254	
278.15	.00163	
283.15	.00245	
288.15	.00304	
293.15	.00391	
298.15	.00536	
303.15	.00605	
308.15	.00792	
313.15	.01032	
318.15	.01335	
323.15	.01653	
328.15	.02052	

System: n-hexane + norfloxacin; phases: Liquid, Crystal
Fixed: Pressure, kPa = 101
Property: Mole fraction of norfloxacin (Liquid); method: Chromatography
Temperature, K	Mole fraction of norfloxacin	uncertainty
278.15	.00049	
283.15	.00062	
288.15	.00073	
293.15	.0009	
298.15	.00115	
303.15	.00135	
308.15	.0017	
313.15	.002	
318.15	.00255	
323.15	.00302	
328.15	.00347	

System: N,N-dimethylformamide + norfloxacin; phases: Liquid, Crystal
Fixed: Pressure, kPa = 101
Property: Mole fraction of norfloxacin (Liquid); method: Chromatography
Temperature, K	Mole fraction of norfloxacin	uncertainty
278.15	.00163	
283.15	.00245	
288.15	.00304	
293.15	.00391	
298.15	.00536	
303.15	.00605	
308.15	.00792	
313.15	.01032	
318.15	.01335	
323.15	.01653	
328.15	.02052	
278.15	.000145	
283.15	.000279	
288.15	.000312	
293.15	.000422	
298.15	.00061	
303.15	.000721	
308.15	.00093	
313.15	.00122	
318.15	.00155	
323.15	.002	
328.15	.00254	

System: N,N-dimethylformamide + ethyl acetate + norfloxacin; phases: Liquid, Crystal
Fixed: Pressure, kPa = 101
Property: Mole fraction of norfloxacin (Liquid); method: Chromatography
Temperature, K	Solvent: Mole fraction of ethyl acetate	Mole fraction of norfloxacin	uncertainty
278.15	0	.000145	
278.15	.182	.000415	
278.15	.387	.00072	
278.15	.508	.0009	
278.15	.655	.001117	
278.15	.791	.00132	
278.15	.919	.00151	
278.15	1	.00163	
283.15	0	.000279	
283.15	.182	.000674	
283.15	.387	.001119	
283.15	.508	.001382	
283.15	.655	.0017	
283.15	.791	.001997	
283.15	.919	.002274	
283.15	1	.00245	
288.15	0	.000312	
288.15	.182	.000809	
288.15	.387	.001368	
288.15	.508	.001698	
288.15	.655	.002097	
288.15	.791	.00247	
288.15	.919	.002819	
288.15	1	.00304	
293.15	0	.000422	
293.15	.182	.001058	
293.15	.387	.001772	
293.15	.508	.002195	
293.15	.655	.002705	
293.15	.791	.003182	
293.15	.919	.003628	
293.15	1	.00391	
298.15	0	.00061	
298.15	.182	.001476	
298.15	.387	.002449	
298.15	.508	.003024	
298.15	.655	.003719	
298.15	.791	.004368	
298.15	.919	.004976	
298.15	1	.00536	
303.15	0	.000721	
303.15	.182	.001692	
303.15	.387	.002784	
303.15	.508	.003429	
303.15	.655	.004209	
303.15	.791	.004937	
303.15	.919	.005619	
303.15	1	.00605	
308.15	0	.00093	
308.15	.182	.002204	
308.15	.387	.003636	
308.15	.508	.004482	
308.15	.655	.005505	
308.15	.791	.006461	
308.15	.919	.007355	
308.15	1	.00792	
313.15	0	.00122	
313.15	.182	.002879	
313.15	.387	.004743	
313.15	.508	.005845	
313.15	.655	.007176	
313.15	.791	.00842	
313.15	.919	.009584	
313.15	1	.01032	
318.15	0	.00155	
318.15	.182	.003701	
318.15	.387	.006118	
318.15	.508	.007547	
318.15	.655	.009273	
318.15	.791	.010886	
318.15	.919	.012396	
318.15	1	.01335	
323.15	0	.002	
323.15	.182	.004648	
323.15	.387	.007625	
323.15	.508	.009384	
323.15	.655	.01151	
323.15	.791	.013496	
323.15	.919	.015355	
323.15	1	.01653	
328.15	0	.00254	
328.15	.182	.005817	
328.15	.387	.0095	
328.15	.508	.011677	
328.15	.655	.014308	
328.15	.791	.016766	
328.15	.919	.019066	
328.15	1	.02052	
