Measured thermophysical data. Effect of cation alkyl chain length on liquid-liquid equilibria of {ionic liquids + thiophene + heptane}: COSMO-RS prediction and experimental verification
Source: Fluid Phase Equilib., 2016, 10.1016/j.fluid.2016.06.016
Compound 1: heptane, C7H16, purity 99.0%
Compound 2: thiophene, C4H4S, purity 99.0%
Compound 3: 1-ethyl-3-methylimidazolium acetate, C8H14N2O2, purity 98.5%
Compound 4: 1-butyl-3-methylimidazolium acetate, C10H18N2O2, purity 98.5%
Compound 5: 3-hexyl-1-methylimidazolium acetate, C12H22N2O2, purity 98.5%
Compound 6: 1-octyl-3-methylimidazolium acetate, C14H26N2O2, purity 98.5%

System: heptane + thiophene + 1-ethyl-3-methylimidazolium acetate; phases: Liquid mixture 2, Liquid mixture 1
Property: Mole fraction of 1-ethyl-3-methylimidazolium acetate (Liquid mixture 2); method: Other
Property: Mole fraction of 1-ethyl-3-methylimidazolium acetate (Liquid mixture 1); method: Other
Property: Mole fraction of thiophene (Liquid mixture 1); method: Other
Temperature, K	Pressure, kPa	Mole fraction of thiophene	Mole fraction of 1-ethyl-3-methylimidazolium acetate	uncertainty	Mole fraction of 1-ethyl-3-methylimidazolium acetate	uncertainty	Mole fraction of thiophene	uncertainty
298.15	101	.0094	.0000444	.000000888	.9752	.019504	.0182	
298.15	101	.0418	.0000452	.000000904	.9316	.018632	.0617	
298.15	101	.096	.0000502	.000001004	.8665	.01733	.1276	
298.15	101	.1348	.0000581	.000001162	.8247	.016494	.1698	
298.15	101	.1908	.0000612	.000001224	.7821	.015642	.2125	
298.15	101	.3039	.0000701	.000001402	.7021	.014042	.2925	
298.15	101	.4152	.0000899	.000001798	.6338	.012676	.3606	

System: heptane + thiophene + 1-butyl-3-methylimidazolium acetate; phases: Liquid mixture 2, Liquid mixture 1
Property: Mole fraction of 1-butyl-3-methylimidazolium acetate (Liquid mixture 2); method: Other
Property: Mole fraction of 1-butyl-3-methylimidazolium acetate (Liquid mixture 1); method: Other
Property: Mole fraction of thiophene (Liquid mixture 1); method: Other
Temperature, K	Pressure, kPa	Mole fraction of thiophene	Mole fraction of 1-butyl-3-methylimidazolium acetate	uncertainty	Mole fraction of 1-butyl-3-methylimidazolium acetate	uncertainty	Mole fraction of thiophene	uncertainty
298.15	101	.0162	.0000103	.000000206	.94	.0188	.033	
298.15	101	.0394	.0000116	.000000232	.9103	.018206	.067	
298.15	101	.0833	.000022	.00000044	.8456	.016912	.1333	
298.15	101	.1276	.0000238	.000000476	.7859	.015718	.1925	
298.15	101	.1716	.0000267	.000000534	.7327	.014654	.2454	
298.15	101	.2568	.000031	.00000062	.6328	.012656	.342	
298.15	101	.3868	.0000445	.00000089	.5444	.010888	.4325	

System: heptane + thiophene + 3-hexyl-1-methylimidazolium acetate; phases: Liquid mixture 2, Liquid mixture 1
Property: Mole fraction of 3-hexyl-1-methylimidazolium acetate (Liquid mixture 2); method: Other
Property: Mole fraction of 3-hexyl-1-methylimidazolium acetate (Liquid mixture 1); method: Other
Property: Mole fraction of thiophene (Liquid mixture 1); method: Other
Temperature, K	Pressure, kPa	Mole fraction of thiophene	Mole fraction of 3-hexyl-1-methylimidazolium acetate	uncertainty	Mole fraction of 3-hexyl-1-methylimidazolium acetate	uncertainty	Mole fraction of thiophene	uncertainty
298.15	101	.0115	.000118	.00000236	.8872	.017744	.0282	
298.15	101	.0344	.000101	.00000202	.8449	.016898	.0781	
298.15	101	.0758	.000106	.00000212	.7826	.015652	.15	
298.15	101	.1163	.000123	.00000246	.7243	.014486	.2109	
298.15	101	.1571	.000131	.00000262	.682	.01364	.2534	
298.15	101	.2651	.000151	.00000302	.5908	.011816	.3612	
298.15	101	.386	.000169	.00000338	.5003	.010006	.4374	

System: heptane + thiophene + 1-octyl-3-methylimidazolium acetate; phases: Liquid mixture 2, Liquid mixture 1
Property: Mole fraction of 1-octyl-3-methylimidazolium acetate (Liquid mixture 2); method: Other
Property: Mole fraction of 1-octyl-3-methylimidazolium acetate (Liquid mixture 1); method: Other
Property: Mole fraction of thiophene (Liquid mixture 1); method: Other
Temperature, K	Pressure, kPa	Mole fraction of thiophene	Mole fraction of 1-octyl-3-methylimidazolium acetate	uncertainty	Mole fraction of 1-octyl-3-methylimidazolium acetate	uncertainty	Mole fraction of thiophene	uncertainty
298.15	101	.0127	.000123	.00000246	.7302	.014604	.0274	
298.15	101	.0321	.000123	.00000246	.6948	.013896	.0676	
298.15	101	.0739	.000131	.00000262	.614	.01228	.1505	
298.15	101	.1083	.00014	.0000028	.5626	.011252	.2083	
298.15	101	.1508	.000155	.0000031	.5076	.010152	.2721	
298.15	101	.2339	.000166	.00000332	.4221	.008442	.3764	
298.15	101	.3377	.000179	.00000358	.3509	.007018	.4646	
