Measured thermophysical data. Liquid-liquid equilibrium for the quaternary system propionic acid + n-propanol + n-propyl propionate + water at 293.15, 313.15 and 333.15 K
Source: Fluid Phase Equilib., 2016, 10.1016/j.fluid.2016.05.033
Compound 1: propionic acid, C3H6O2, purity 99.8%
Compound 2: n-propanol, C3H8O, purity 99.5%
Compound 3: propyl propanoate, C6H12O2, purity 98.0%
Compound 4: water, H2O, purity 99.9%

System: propionic acid + propyl propanoate + water; phases: Liquid mixture 2, Liquid mixture 1
Property: Mole fraction of propionic acid (Liquid mixture 2); method: Chromatography
Property: Mole fraction of propionic acid (Liquid mixture 1); method: Chromatography
Property: Mole fraction of propyl propanoate (Liquid mixture 1); method: Chromatography
Temperature, K	Pressure, kPa	Mole fraction of propyl propanoate	Mole fraction of propionic acid	uncertainty	Mole fraction of propionic acid	uncertainty	Mole fraction of propyl propanoate	uncertainty
293.15	101	.926	0	.005	0	.005	.006	.005
313.15	101	.581	.137	.005	.029	.005	.007	.005
313.15	101	.501	.178	.005	.053	.005	.007	.005
313.15	101	.421	.213	.005	.057	.005	.006	.005
313.15	101	.317	.26	.005	.069	.005	.008	.005
313.15	101	.21	.277	.005	.092	.005	.01	.005
313.15	101	.138	.27	.005	.122	.005	.015	.005
313.15	101	.106	.263	.005	.129	.005	.02	.005
333.15	101	.828	0	.005	0	.005	.013	.005
333.15	101	.56	.133	.005	.037	.005	.004	.005
333.15	101	.473	.176	.005	.044	.005	.012	.005
293.15	101	.61	.143	.005	.038	.005	.004	.005
333.15	101	.391	.204	.005	.051	.005	.011	.005
333.15	101	.3	.253	.005	.072	.005	.007	.005
333.15	101	.195	.265	.005	.103	.005	.014	.005
333.15	101	.133	.252	.005	.122	.005	.021	.005
293.15	101	.526	.189	.005	.035	.005	.008	.005
293.15	101	.416	.246	.005	.044	.005	.01	.005
293.15	101	.34	.272	.005	.064	.005	.009	.005
293.15	101	.227	.288	.005	.093	.005	.009	.005
293.15	101	.162	.284	.005	.107	.005	.011	.005
293.15	101	.118	.275	.005	.124	.005	.015	.005
313.15	101	.881	0	.005	0	.005	.009	.005

System: n-propanol + propyl propanoate + water; phases: Liquid mixture 2, Liquid mixture 1
Property: Mole fraction of n-propanol (Liquid mixture 2); method: Chromatography
Property: Mole fraction of n-propanol (Liquid mixture 1); method: Chromatography
Property: Mole fraction of propyl propanoate (Liquid mixture 1); method: Chromatography
Temperature, K	Pressure, kPa	Mole fraction of propyl propanoate	Mole fraction of n-propanol	uncertainty	Mole fraction of n-propanol	uncertainty	Mole fraction of propyl propanoate	uncertainty
293.15	101	.926	0	.005	0	.005	.006	.005
293.15	101	.219	.381	.005	.052	.005	.004	.005
293.15	101	.195	.378	.005	.053	.005	.003	.005
293.15	101	.164	.376	.005	.056	.005	.003	.005
293.15	101	.085	.33	.005	.068	.005	.003	.005
313.15	101	.881	0	.005	0	.005	.009	.005
313.15	101	.79	.084	.005	.01	.005	.015	.005
313.15	101	.671	.165	.005	.017	.005	.006	.005
313.15	101	.569	.226	.005	.027	.005	.007	.005
313.15	101	.481	.271	.005	.029	.005	.004	.005
313.15	101	.421	.303	.005	.033	.005	.002	.005
293.15	101	.842	.073	.005	.013	.005	.011	.005
313.15	101	.363	.329	.005	.036	.005	.005	.005
313.15	101	.323	.348	.005	.038	.005	.003	.005
313.15	101	.284	.362	.005	.041	.005	.004	.005
313.15	101	.206	.372	.005	.045	.005	.003	.005
313.15	101	.154	.363	.005	.051	.005	.004	.005
313.15	101	.078	.318	.005	.065	.005	.003	.005
313.15	101	.04	.244	.005	.088	.005	.006	.005
333.15	101	.828	0	.005	0	.005	.013	.005
333.15	101	.745	.092	.005	.009	.005	.012	.005
333.15	101	.639	.17	.005	.015	.005	.007	.005
293.15	101	.72	.154	.005	.022	.005	.008	.005
333.15	101	.533	.226	.005	.02	.005	.008	.005
333.15	101	.46	.273	.005	.027	.005	.005	.005
333.15	101	.4	.305	.005	.03	.005	.004	.005
333.15	101	.354	.325	.005	.033	.005	.005	.005
333.15	101	.31	.343	.005	.037	.005	.007	.005
333.15	101	.27	.354	.005	.04	.005	.006	.005
333.15	101	.193	.356	.005	.044	.005	.004	.005
333.15	101	.145	.349	.005	.048	.005	.003	.005
333.15	101	.072	.295	.005	.065	.005	.004	.005
333.15	101	.032	.213	.005	.094	.005	.007	.005
293.15	101	.625	.214	.005	.031	.005	.007	.005
293.15	101	.521	.268	.005	.035	.005	.005	.005
293.15	101	.447	.305	.005	.038	.005	.003	.005
293.15	101	.395	.332	.005	.041	.005	.003	.005
293.15	101	.346	.353	.005	.044	.005	.004	.005
293.15	101	.299	.366	.005	.046	.005	.004	.005

System: propyl propanoate + water; phases: Liquid mixture 2, Liquid mixture 1
Property: Mole fraction of propyl propanoate (Liquid mixture 2); method: Chromatography
Pressure, kPa	Temperature, K	Mole fraction of propyl propanoate	uncertainty
101	293.15	.926	
101	333.15	.828	
101	313.15	.881	

System: propyl propanoate + water; phases: Liquid mixture 1, Liquid mixture 2
Property: Mole fraction of propyl propanoate (Liquid mixture 1); method: Chromatography
Temperature, K	Pressure, kPa	Mole fraction of propyl propanoate	uncertainty
293.15	101	.006	
333.15	101	.013	
313.15	101	.009	
