Measured thermophysical data. Liquid liquid equilibria measurements of ternary systems (acetonitrile + a carboxylic acid + dodecane) at 303.15 K
Source: Fluid Phase Equilib., 2015, 10.1016/j.fluid.2014.12.013
Compound 1: acetic acid, C2H4O2, purity 99%
Compound 2: propanoic acid, C3H6O2, purity 99%
Compound 3: butanoic acid, C4H8O2, purity 99%
Compound 4: 2-methylpropanoic acid, C4H8O2, purity 99%
Compound 5: pentanoic acid, C5H10O2, purity 99%
Compound 6: 3-methylbutanoic acid, C5H10O2, purity 99%
Compound 7: dodecane, C12H26, purity 99%
Compound 8: acetonitrile, C2H3N, purity 99%

System: acetic acid; phases: Liquid
Fixed: Pressure, kPa = 101.325
Property: Refractive index (Na D-line) (Liquid); method: Standard Abbe refractometry
Temperature, K	Refractive index (Na D-line)	uncertainty
303.15	1.3716	.0004

System: propanoic acid; phases: Liquid
Fixed: Pressure, kPa = 101.325
Property: Refractive index (Na D-line) (Liquid); method: Standard Abbe refractometry
Temperature, K	Refractive index (Na D-line)	uncertainty
303.15	1.3829	.0004

System: butanoic acid; phases: Liquid
Fixed: Pressure, kPa = 101.325
Property: Refractive index (Na D-line) (Liquid); method: Standard Abbe refractometry
Temperature, K	Refractive index (Na D-line)	uncertainty
303.15	1.3947	.0004

System: 2-methylpropanoic acid; phases: Liquid
Fixed: Pressure, kPa = 101.325
Property: Refractive index (Na D-line) (Liquid); method: Standard Abbe refractometry
Temperature, K	Refractive index (Na D-line)	uncertainty
303.15	1.3893	.0004

System: pentanoic acid; phases: Liquid
Fixed: Pressure, kPa = 101.325
Property: Refractive index (Na D-line) (Liquid); method: Standard Abbe refractometry
Temperature, K	Refractive index (Na D-line)	uncertainty
303.15	1.4047	.0004

System: 3-methylbutanoic acid; phases: Liquid
Fixed: Pressure, kPa = 101.325
Property: Refractive index (Na D-line) (Liquid); method: Standard Abbe refractometry
Temperature, K	Refractive index (Na D-line)	uncertainty
303.15	1.3997	.0004

System: dodecane; phases: Liquid
Fixed: Pressure, kPa = 101.325
Property: Refractive index (Na D-line) (Liquid); method: Standard Abbe refractometry
Temperature, K	Refractive index (Na D-line)	uncertainty
303.15	1.4181	.0004

System: acetonitrile; phases: Liquid
Fixed: Pressure, kPa = 101.325
Property: Refractive index (Na D-line) (Liquid); method: Standard Abbe refractometry
Temperature, K	Refractive index (Na D-line)	uncertainty
303.15	1.3396	.0004

System: acetic acid + acetonitrile + dodecane; phases: Liquid mixture 1, Liquid mixture 2
Fixed: Pressure, kPa = 101
Fixed: Temperature, K = 303.15
Property: Mole fraction of acetic acid (Liquid mixture 1); method: Titration method
Mole fraction of acetonitrile	Mole fraction of acetic acid	uncertainty
.04	0	.0005
.051	.1501	.0005
.052	.31	.0005
.0532	.5203	.0005
.0654	.7011	.0005
.099	.7111	.0005
.1401	.7121	.0005
.1702	.7701	.0005
.24	.726	.0005
.3011	.6645	.0005
.3959	.5713	.0005
.5893	.3711	.0005
.6851	.2787	.0005
.7871	.1766	.0005
.8817	.083	.0005
.9269	.0361	.0005
.956	0	.0005

System: acetic acid + acetonitrile + dodecane; phases: Liquid mixture 2, Liquid mixture 1
Fixed: Pressure, kPa = 101
Property: Mole fraction of acetic acid (Liquid mixture 2); method: Index of refraction calibration data
Property: Mole fraction of acetic acid (Liquid mixture 1); method: Index of refraction calibration data
Property: Mole fraction of acetonitrile (Liquid mixture 1); method: Index of refraction calibration data
Temperature, K	Mole fraction of acetonitrile	Mole fraction of acetic acid	uncertainty	Mole fraction of acetic acid	uncertainty	Mole fraction of acetonitrile	uncertainty
303.15	.359	.61	.0005	.0971	.0005	.0459	.0005
303.15	.4985	.471	.0005	.0778	.0005	.0457	.0005
303.15	.6806	.283	.0005	.065	.0005	.0419	.0005
303.15	.7992	.1648	.0005	.0383	.0005	.04	.0005
303.15	.9012	.06	.0005	.0211	.0005	.0397	.0005

System: acetic acid + acetonitrile + dodecane; phases: Liquid
Fixed: Pressure, kPa = 101
Fixed: Temperature, K = 303.15
Property: Refractive index (Na D-line) (Liquid); method: Standard Abbe refractometry
Mole fraction of acetonitrile	Mole fraction of acetic acid	Refractive index (Na D-line)	uncertainty
.0459	.0971	1.3567	.0004
.0457	.0778	1.3557	.0004
.0419	.065	1.3521	.0004
.04	.0383	1.3488	.0004
.0397	.0211	1.3417	.0004
.359	.61	1.3619	.0004
.4985	.471	1.3556	.0004
.6806	.283	1.3521	.0004
.7992	.1648	1.3489	.0004
.9012	.06	1.3435	.0004

System: acetonitrile + propanoic acid + dodecane; phases: Liquid mixture 1, Liquid mixture 2
Fixed: Pressure, kPa = 101
Fixed: Temperature, K = 303.15
Property: Mole fraction of propanoic acid (Liquid mixture 1); method: Titration method
Mole fraction of acetonitrile	Mole fraction of propanoic acid	uncertainty
.04	0	.0005
.042	.016	.0005
.051	.185	.0005
.054	.27	.0005
.06	.4202	.0005
.07	.5011	.0005
.124	.56	.0005
.2062	.5885	.0005
.3509	.581	.0005
.4643	.4946	.0005
.6678	.313	.0005
.7608	.2204	.0005
.8402	.139	.0005
.9178	.0625	.0005
.956	.02	.0005

System: acetonitrile + propanoic acid + dodecane; phases: Liquid mixture 2, Liquid mixture 1
Fixed: Pressure, kPa = 101
Property: Mole fraction of propanoic acid (Liquid mixture 2); method: Index of refraction calibration data
Property: Mole fraction of propanoic acid (Liquid mixture 1); method: Index of refraction calibration data
Property: Mole fraction of acetonitrile (Liquid mixture 1); method: Index of refraction calibration data
Temperature, K	Mole fraction of acetonitrile	Mole fraction of propanoic acid	uncertainty	Mole fraction of propanoic acid	uncertainty	Mole fraction of acetonitrile	uncertainty
303.15	.393	.54	.0005	.08	.0005	.046	.0005
303.15	.4624	.4896	.0005	.0648	.0005	.0464	.0005
303.15	.6792	.299	.0005	.0534	.0005	.0469	.0005
303.15	.8058	.178	.0005	.0408	.0005	.0474	.0005
303.15	.8754	.0999	.0005	.03	.0005	.0477	.0005

System: acetonitrile + propanoic acid + dodecane; phases: Liquid
Fixed: Pressure, kPa = 101
Fixed: Temperature, K = 303.15
Property: Refractive index (Na D-line) (Liquid); method: Standard Abbe refractometry
Mole fraction of acetonitrile	Mole fraction of propanoic acid	Refractive index (Na D-line)	uncertainty
.046	.08	1.3851	.0004
.0464	.0648	1.378	.0004
.0469	.0534	1.3743	.0004
.0474	.0408	1.3667	.0004
.0477	.03	1.3621	.0004
.393	.54	1.3856	.0004
.4624	.4896	1.3782	.0004
.6792	.299	1.3718	.0004
.8058	.178	1.3621	.0004
.8754	.0999	1.3565	.0004

System: acetonitrile + butanoic acid + dodecane; phases: Liquid mixture 1, Liquid mixture 2
Fixed: Pressure, kPa = 101
Fixed: Temperature, K = 303.15
Property: Mole fraction of butanoic acid (Liquid mixture 1); method: Titration method
Mole fraction of acetonitrile	Mole fraction of butanoic acid	uncertainty
.04	0	.0005
.042	.05	.0005
.043	.12	.0005
.045	.2766	.0005
.05	.3411	.0005
.06	.42	.0005
.1344	.4811	.0005
.1777	.486	.0005
.2254	.49	.0005
.3541	.4911	.0005
.4972	.4251	.0005
.6985	.2662	.0005
.7699	.1868	.0005
.8556	.1155	.0005
.9124	.0554	.0005
.9545	.0262	.0005
.956	.0125	.0005

System: acetonitrile + butanoic acid + dodecane; phases: Liquid mixture 2, Liquid mixture 1
Fixed: Pressure, kPa = 101
Property: Mole fraction of butanoic acid (Liquid mixture 2); method: Index of refraction calibration data
Property: Mole fraction of butanoic acid (Liquid mixture 1); method: Index of refraction calibration data
Property: Mole fraction of acetonitrile (Liquid mixture 1); method: Index of refraction calibration data
Temperature, K	Mole fraction of acetonitrile	Mole fraction of butanoic acid	uncertainty	Mole fraction of butanoic acid	uncertainty	Mole fraction of acetonitrile	uncertainty
303.15	.3762	.48	.0005	.0825	.0005	.0393	.0005
303.15	.5559	.38	.0005	.0669	.0005	.0371	.0005
303.15	.7115	.247	.0005	.057	.0005	.0412	.0005
303.15	.7901	.178	.0005	.0386	.0005	.0435	.0005
303.15	.8675	.0998	.0005	.0235	.0005	.0482	.0005

System: acetonitrile + butanoic acid + dodecane; phases: Liquid
Fixed: Pressure, kPa = 101
Fixed: Temperature, K = 303.15
Property: Refractive index (Na D-line) (Liquid); method: Standard Abbe refractometry
Mole fraction of acetonitrile	Mole fraction of butanoic acid	Refractive index (Na D-line)	uncertainty
.0393	.0825	1.3867	.0004
.0371	.0669	1.3815	.0004
.0412	.057	1.3745	.0004
.0435	.0386	1.3723	.0004
.0482	.0235	1.3656	.0004
.3762	.48	1.3779	.0004
.5559	.38	1.3649	.0004
.7115	.247	1.3593	.0004
.7901	.178	1.353	.0004
.8675	.0998	1.3473	.0004

System: acetonitrile + 2-methylpropanoic acid + dodecane; phases: Liquid mixture 1, Liquid mixture 2
Fixed: Pressure, kPa = 101
Fixed: Temperature, K = 303.15
Property: Mole fraction of 2-methylpropanoic acid (Liquid mixture 1); method: Titration method
Mole fraction of acetonitrile	Mole fraction of 2-methylpropanoic acid	uncertainty
.04	0	.0005
.06	.2211	.0005
.09	.3511	.0005
.1822	.4407	.0005
.3607	.4723	.0005
.4972	.4289	.0005
.7414	.2325	.0005
.7925	.1793	.0005
.8718	.1044	.0005
.9	.0523	.0005
.9355	.0296	.0005
.956	.012	.0005

System: acetonitrile + 2-methylpropanoic acid + dodecane; phases: Liquid mixture 2, Liquid mixture 1
Fixed: Pressure, kPa = 101
Property: Mole fraction of 2-methylpropanoic acid (Liquid mixture 2); method: Index of refraction calibration data
Property: Mole fraction of acetonitrile (Liquid mixture 1); method: Index of refraction calibration data
Property: Mole fraction of 2-methylpropanoic acid (Liquid mixture 1); method: Index of refraction calibration data
Temperature, K	Mole fraction of acetonitrile	Mole fraction of 2-methylpropanoic acid	uncertainty	Mole fraction of acetonitrile	uncertainty	Mole fraction of 2-methylpropanoic acid	uncertainty
303.15	.5276	.3997	.0005	.0805	.0005	.0756	.0005
303.15	.6107	.3401	.0005	.0459	.0005	.0589	.0005
303.15	.7693	.2103	.0005	.0452	.0005	.0424	.0005
303.15	.8026	.175	.0005	.0419	.0005	.0236	.0005
303.15	.8771	.099	.0005	.0395	.0005	.0148	.0005

System: acetonitrile + 2-methylpropanoic acid + dodecane; phases: Liquid
Fixed: Pressure, kPa = 101
Fixed: Temperature, K = 303.15
Property: Refractive index (Na D-line) (Liquid); method: Standard Abbe refractometry
Mole fraction of acetonitrile	Mole fraction of 2-methylpropanoic acid	Refractive index (Na D-line)	uncertainty
.0805	.0756	1.3903	.0004
.0459	.0589	1.3867	.0004
.0452	.0424	1.3815	.0004
.0419	.0236	1.3745	.0004
.0395	.0148	1.3723	.0004
.5276	.3997	1.3773	.0004
.6107	.3401	1.3734	.0004
.7693	.2103	1.3626	.0004
.8026	.175	1.3579	.0004
.8771	.099	1.3519	.0004

System: acetonitrile + pentanoic acid + dodecane; phases: Liquid mixture 1, Liquid mixture 2
Fixed: Pressure, kPa = 101
Fixed: Temperature, K = 303.15
Property: Mole fraction of pentanoic acid (Liquid mixture 1); method: Titration method
Mole fraction of acetonitrile	Mole fraction of pentanoic acid	uncertainty
.04	0	.0005
.05	.072	.0005
.06	.2311	.0005
.08	.3504	.0005
.1798	.4025	.0005
.3516	.4236	.0005
.5099	.3731	.0005
.7327	.2347	.0005
.7988	.1734	.0005
.8719	.1	.0005
.9252	.04	.0005
.9342	.0238	.0005
.9549	.0113	.0005
.956	.01	.0005

System: acetonitrile + pentanoic acid + dodecane; phases: Liquid mixture 2, Liquid mixture 1
Fixed: Pressure, kPa = 101
Property: Mole fraction of pentanoic acid (Liquid mixture 2); method: Index of refraction calibration data
Property: Mole fraction of pentanoic acid (Liquid mixture 1); method: Index of refraction calibration data
Property: Mole fraction of acetonitrile (Liquid mixture 1); method: Index of refraction calibration data
Temperature, K	Mole fraction of acetonitrile	Mole fraction of pentanoic acid	uncertainty	Mole fraction of pentanoic acid	uncertainty	Mole fraction of acetonitrile	uncertainty
303.15	.6594	.29	.0005	.0832	.0005	.0382	.0005
303.15	.4217	.41	.0005	.0523	.0005	.0398	.0005
303.15	.7169	.24	.0005	.034	.0005	.0424	.0005
303.15	.8124	.16	.0005	.0118	.0005	.0487	.0005

System: acetonitrile + pentanoic acid + dodecane; phases: Liquid
Fixed: Pressure, kPa = 101
Fixed: Temperature, K = 303.15
Property: Refractive index (Na D-line) (Liquid); method: Standard Abbe refractometry
Mole fraction of acetonitrile	Mole fraction of pentanoic acid	Refractive index (Na D-line)	uncertainty
.0382	.0832	1.4037	.0004
.0398	.0523	1.3986	.0004
.0424	.034	1.3932	.0004
.0487	.0118	1.3856	.0004
.6594	.29	1.4099	.0004
.4217	.41	1.3826	.0004
.7169	.24	1.3678	.0004
.8124	.16	1.3617	.0004

System: acetonitrile + dodecane + 3-methylbutanoic acid; phases: Liquid mixture 1, Liquid mixture 2
Fixed: Pressure, kPa = 101
Fixed: Temperature, K = 303.15
Property: Mole fraction of 3-methylbutanoic acid (Liquid mixture 1); method: Titration method
Mole fraction of acetonitrile	Mole fraction of 3-methylbutanoic acid	uncertainty
.04	0	.0005
.05	.0726	.0005
.06	.1633	.0005
.1255	.3153	.0005
.2661	.3509	.0005
.4045	.3506	.0005
.5322	.3501	.0005
.609	.3352	.0005
.74	.2205	.0005
.87	.0903	.0005
.9522	.0339	.0005
.9531	.0224	.0005
.9545	.0111	.0005
.956	.01	.0005

System: acetonitrile + dodecane + 3-methylbutanoic acid; phases: Liquid mixture 2, Liquid mixture 1
Fixed: Pressure, kPa = 101
Property: Mole fraction of 3-methylbutanoic acid (Liquid mixture 2); method: Index of refraction calibration data
Property: Mole fraction of 3-methylbutanoic acid (Liquid mixture 1); method: Index of refraction calibration data
Property: Mole fraction of acetonitrile (Liquid mixture 1); method: Index of refraction calibration data
Temperature, K	Mole fraction of acetonitrile	Mole fraction of 3-methylbutanoic acid	uncertainty	Mole fraction of 3-methylbutanoic acid	uncertainty	Mole fraction of acetonitrile	uncertainty
303.15	.54	.3438	.0005	.089	.0005	.0467	.0005
303.15	.6891	.26	.0005	.0741	.0005	.0465	.0005
303.15	.7731	.1931	.0005	.0637	.0005	.0462	.0005
303.15	.8401	.132	.0005	.0506	.0005	.045	.0005
303.15	.91	.06	.0005	.0365	.0005	.0422	.0005

System: acetonitrile + dodecane + 3-methylbutanoic acid; phases: Liquid
Fixed: Pressure, kPa = 101
Fixed: Temperature, K = 303.15
Property: Refractive index (Na D-line) (Liquid); method: Standard Abbe refractometry
Mole fraction of acetonitrile	Mole fraction of 3-methylbutanoic acid	Refractive index (Na D-line)	uncertainty
.0467	.089	1.3998	.0004
.0465	.0741	1.3845	.0004
.0462	.0637	1.3721	.0004
.045	.0506	1.3676	.0004
.0422	.0365	1.3632	.0004
.54	.3438	1.3795	.0004
.6891	.26	1.3768	.0004
.7731	.1931	1.3656	.0004
.8401	.132	1.3592	.0004
.91	.06	1.3534	.0004
