Measured thermophysical data. Ether + alcohol + hydrocarbon mixtures in fuels and bio-fuels: Excess enthalpies of binary mixtures containing dibutyl ether (DBE) or 1-butanol and 1-hexene or methylcyclohexane or toluene or cyclohexane or 2,2,4-trimethylpentane at  298.15K and 313.15K
Source: Fluid Phase Equilib., 2012, 10.1016/j.fluid.2011.11.005
Compound 1: 5-oxanonane, C8H18O, purity 99.6%
Compound 2: 1-butanol, C4H10O, purity 99.9%
Compound 3: 1-hexene, C6H12, purity 99.3%
Compound 4: cyclohexane, C6H12, purity 99.9%
Compound 5: methylcyclohexane, C7H14, purity 99.7%
Compound 6: toluene, C7H8, purity 99.9%
Compound 7: 2,2,4-trimethylpentane, C8H18, purity 99.9%

System: 5-oxanonane + 1-hexene; phases: Liquid
Fixed: Pressure, kPa = 101
Property: Excess molar enthalpy (molar enthalpy of mixing), kJ/mol (Liquid); method: Flow calorimetry
Temperature, K	Mole fraction of 5-oxanonane	Excess molar enthalpy (molar enthalpy of mixing), kJ/mol	uncertainty
298.15	.0503	-.0031	-.000031
298.15	.1001	-.0058	-.000058
298.15	.1501	-.0108	-.000108
298.15	.2	-.0138	-.000138
298.15	.25	-.0168	-.000168
298.15	.2998	-.0189	-.000189
298.15	.3502	-.0204	-.000204
298.15	.3994	-.0217	-.000217
298.15	.4502	-.0223	-.000223
298.15	.4995	-.0227	-.000227
298.15	.5494	-.0223	-.000223
298.15	.5996	-.0214	-.000214
298.15	.6491	-.0201	-.000201
298.15	.7001	-.0183	-.000183
298.15	.7491	-.016	-.00016
298.15	.7995	-.0124	-.000124
298.15	.8501	-.0097	-.000097
298.15	.8996	-.0065	-.000065
298.15	.9504	-.003	-.00003
313.15	.0503	-.0042	-.000042
313.15	.15	-.0124	-.000124
313.15	.2	-.016	-.00016
313.15	.25	-.0187	-.000187
313.15	.2997	-.0208	-.000208
313.15	.3503	-.0226	-.000226
313.15	.3995	-.0237	-.000237
313.15	.4503	-.0243	-.000243
313.15	.4997	-.0245	-.000245
313.15	.5495	-.0242	-.000242
313.15	.5997	-.0233	-.000233
313.15	.6493	-.0218	-.000218
313.15	.7002	-.0196	-.000196
313.15	.7492	-.0178	-.000178
313.15	.7996	-.0151	-.000151
313.15	.8501	-.0119	-.000119
313.15	.8996	-.0085	-.000085
313.15	.9504	-.0045	-.000045

System: methylcyclohexane + 5-oxanonane; phases: Liquid
Fixed: Pressure, kPa = 101
Property: Excess molar enthalpy (molar enthalpy of mixing), kJ/mol (Liquid); method: Flow calorimetry
Temperature, K	Mole fraction of 5-oxanonane	Excess molar enthalpy (molar enthalpy of mixing), kJ/mol	uncertainty
298.15	.0497	.023	.00023
298.15	.1003	.0433	.000433
298.15	.1501	.0572	.000572
298.15	.1997	.0692	.000692
298.15	.2501	.0789	.000789
298.15	.3002	.0864	.000864
298.15	.3499	.0912	.000912
298.15	.3993	.0941	.000941
298.15	.45	.0955	.000955
298.15	.4993	.0946	.000946
298.15	.5499	.0921	.000921
298.15	.5999	.0878	.000878
298.15	.6491	.0822	.000822
298.15	.6997	.0742	.000742
298.15	.7493	.0652	.000652
298.15	.8002	.055	.00055
298.15	.8501	.043	.00043
298.15	.9001	.0296	.000296
298.15	.95	.0149	.000149
313.15	.0497	.0208	.000208
313.15	.1003	.038	.00038
313.15	.1501	.0526	.000526
313.15	.1998	.0641	.000641
313.15	.2501	.0734	.000734
313.15	.3002	.0808	.000808
313.15	.35	.0851	.000851
313.15	.3994	.0882	.000882
313.15	.4501	.0898	.000898
313.15	.4993	.0891	.000891
313.15	.55	.0865	.000865
313.15	.6	.0825	.000825
313.15	.6492	.0771	.000771
313.15	.6997	.0701	.000701
313.15	.7493	.0613	.000613
313.15	.8002	.0516	.000516
313.15	.8501	.0404	.000404
313.15	.9001	.0282	.000282
313.15	.9501	.0142	.000142

System: toluene + 5-oxanonane; phases: Liquid
Fixed: Pressure, kPa = 101
Property: Excess molar enthalpy (molar enthalpy of mixing), kJ/mol (Liquid); method: Flow calorimetry
Temperature, K	Mole fraction of 5-oxanonane	Excess molar enthalpy (molar enthalpy of mixing), kJ/mol	uncertainty
298.15	.0497	.0239	.000239
298.15	.1003	.0421	.000421
298.15	.1502	.056	.00056
298.15	.1999	.067	.00067
298.15	.2499	.0742	.000742
298.15	.2999	.0796	.000796
298.15	.3499	.082	.00082
298.15	.3995	.0825	.000825
298.15	.4497	.081	.00081
298.15	.5002	.0783	.000783
298.15	.5498	.0747	.000747
298.15	.5995	.0693	.000693
298.15	.6502	.0631	.000631
298.15	.6994	.0563	.000563
298.15	.7495	.048	.00048
298.15	.799	.0397	.000397
298.15	.8492	.03	.0003
298.15	.9	.02	.0002
298.15	.9498	.01	.0001
313.15	.0503	.0224	.000224
313.15	.0995	.0404	.000404
313.15	.1501	.0559	.000559
313.15	.2006	.0665	.000665
313.15	.2505	.0745	.000745
313.15	.2997	.08	.0008
313.15	.3497	.0831	.000831
313.15	.4004	.0846	.000846
313.15	.4495	.0841	.000841
313.15	.499	.0813	.000813
313.15	.5485	.0778	.000778
313.15	.6005	.0728	.000728
313.15	.6501	.0665	.000665
313.15	.6994	.0591	.000591
313.15	.7508	.0506	.000506
313.15	.799	.042	.00042
313.15	.8492	.0317	.000317
313.15	.8985	.0218	.000218
313.15	.9498	.0097	.000097

System: 1-butanol + 1-hexene; phases: Liquid
Fixed: Pressure, kPa = 101
Property: Excess molar enthalpy (molar enthalpy of mixing), kJ/mol (Liquid); method: Flow calorimetry
Temperature, K	Mole fraction of 1-hexene	Excess molar enthalpy (molar enthalpy of mixing), kJ/mol	uncertainty
298.15	.05	.04348	.0004348
298.15	.1002	.09803	.0009803
298.15	.1506	.15569	.0015569
298.15	.2003	.22065	.0022065
298.15	.25	.2829	.002829
298.15	.3005	.34702	.0034702
298.15	.35	.40452	.0040452
298.15	.4001	.46217	.0046217
298.15	.4499	.51512	.0051512
298.15	.5003	.56098	.0056098
298.15	.5503	.59652	.0059652
298.15	.5996	.62373	.0062373
298.15	.6505	.64258	.0064258
298.15	.7006	.64796	.0064796
298.15	.7499	.63978	.0063978
298.15	.8006	.61567	.0061567
298.15	.8503	.5761	.005761
298.15	.9002	.51291	.0051291
298.15	.9501	.40551	.0040551
313.15	.05	.0787	.000787
313.15	.1001	.16657	.0016657
313.15	.1505	.25191	.0025191
313.15	.2002	.3399	.003399
313.15	.2499	.42663	.0042663
313.15	.3004	.50781	.0050781
313.15	.3498	.58846	.0058846
313.15	.4	.66253	.0066253
313.15	.4498	.72837	.0072837
313.15	.5001	.78467	.0078467
313.15	.5501	.83043	.0083043
313.15	.5995	.86197	.0086197
313.15	.6504	.88018	.0088018
313.15	.7005	.88114	.0088114
313.15	.7498	.86701	.0086701
313.15	.8005	.83506	.0083506
313.15	.8503	.78182	.0078182
313.15	.9002	.69325	.0069325
313.15	.9501	.53305	.0053305

System: 1-butanol + methylcyclohexane; phases: Liquid
Fixed: Pressure, kPa = 101
Property: Excess molar enthalpy (molar enthalpy of mixing), kJ/mol (Liquid); method: Flow calorimetry
Temperature, K	Mole fraction of methylcyclohexane	Excess molar enthalpy (molar enthalpy of mixing), kJ/mol	uncertainty
298.15	.0498	.063	.00063
298.15	.1	.1261	.001261
298.15	.1505	.1878	.001878
298.15	.2005	.246	.00246
298.15	.2506	.3032	.003032
298.15	.3	.3565	.003565
298.15	.3502	.4076	.004076
298.15	.4002	.4545	.004545
298.15	.4501	.4964	.004964
298.15	.5007	.5325	.005325
298.15	.5497	.5599	.005599
298.15	.6004	.5792	.005792
298.15	.6505	.5878	.005878
298.15	.6999	.5847	.005847
298.15	.7498	.5688	.005688
298.15	.7999	.5395	.005395
298.15	.8504	.4951	.004951
298.15	.8997	.435	.00435
298.15	.9505	.3406	.003406
313.15	.0498	.0886	.000886
313.15	.1	.1775	.001775
313.15	.1505	.2633	.002633
313.15	.2005	.3456	.003456
313.15	.2507	.4241	.004241
313.15	.3	.4972	.004972
313.15	.3502	.5655	.005655
313.15	.4002	.6276	.006276
313.15	.45	.6821	.006821
313.15	.5006	.7287	.007287
313.15	.5497	.7623	.007623
313.15	.6004	.7852	.007852
313.15	.6505	.795	.00795
313.15	.7	.7903	.007903
313.15	.7498	.7703	.007703
313.15	.8	.7346	.007346
313.15	.8504	.6798	.006798
313.15	.8997	.6022	.006022
313.15	.9505	.4702	.004702

System: 1-butanol + toluene; phases: Liquid
Fixed: Pressure, kPa = 101
Property: Excess molar enthalpy (molar enthalpy of mixing), kJ/mol (Liquid); method: Flow calorimetry
Temperature, K	Mole fraction of toluene	Excess molar enthalpy (molar enthalpy of mixing), kJ/mol	uncertainty
298.15	.0504	.1027	.001027
298.15	.0998	.2082	.002082
298.15	.1501	.315	.00315
298.15	.2011	.4226	.004226
298.15	.251	.5236	.005236
298.15	.2999	.6189	.006189
298.15	.3495	.7091	.007091
298.15	.3998	.7919	.007919
298.15	.4509	.8649	.008649
298.15	.5009	.9232	.009232
298.15	.5495	.9672	.009672
298.15	.6009	.9984	.009984
298.15	.6509	1.0119	.010119
298.15	.6996	1.0059	.010059
298.15	.7512	.9786	.009786
298.15	.7992	.9294	.009294
298.15	.85	.8482	.008482
298.15	.8993	.7264	.007264
298.15	.9493	.5182	.005182
313.15	.0504	.1425	.001425
313.15	.0999	.2866	.002866
313.15	.1501	.4288	.004288
313.15	.2011	.568	.00568
313.15	.2512	.6962	.006962
313.15	.3	.8139	.008139
313.15	.3496	.9226	.009226
313.15	.4	1.0185	.010185
313.15	.4511	1.1035	.011035
313.15	.501	1.1686	.011686
313.15	.5496	1.2176	.012176
313.15	.601	1.2502	.012502
313.15	.6511	1.2616	.012616
313.15	.6998	1.2482	.012482
313.15	.7513	1.2113	.012113
313.15	.7992	1.146	.01146
313.15	.85	1.0398	.010398
313.15	.8993	.8784	.008784
313.15	.9493	.5973	.005973

System: cyclohexane + 5-oxanonane; phases: Liquid
Fixed: Pressure, kPa = 101
Fixed: Temperature, K = 313.15
Property: Excess molar enthalpy (molar enthalpy of mixing), kJ/mol (Liquid); method: Flow calorimetry
Mole fraction of 5-oxanonane	Excess molar enthalpy (molar enthalpy of mixing), kJ/mol	uncertainty
.0498	.0738	.000738
.0997	.1291	.001291
.1502	.1713	.001713
.2003	.2032	.002032
.2498	.2246	.002246
.3001	.2398	.002398
.3502	.247	.00247
.3999	.2496	.002496
.4499	.2474	.002474
.4992	.2414	.002414
.5497	.2299	.002299
.6002	.2166	.002166
.6493	.1984	.001984
.6993	.1777	.001777
.7502	.1535	.001535
.7991	.1251	.001251
.85	.0981	.000981
.9001	.0659	.000659
.9506	.0327	.000327

System: 5-oxanonane + 2,2,4-trimethylpentane; phases: Liquid
Fixed: Pressure, kPa = 101
Fixed: Temperature, K = 313.15
Property: Excess molar enthalpy (molar enthalpy of mixing), kJ/mol (Liquid); method: Flow calorimetry
Mole fraction of 5-oxanonane	Excess molar enthalpy (molar enthalpy of mixing), kJ/mol	uncertainty
.0497	.0262	.000262
.0996	.0494	.000494
.1496	.0668	.000668
.1998	.0825	.000825
.2501	.0954	.000954
.2995	.1057	.001057
.35	.1132	.001132
.3997	.1184	.001184
.4495	.1204	.001204
.4994	.1212	.001212
.5495	.119	.00119
.5996	.1147	.001147
.6499	.1082	.001082
.6993	.0991	.000991
.7499	.088	.00088
.7996	.0746	.000746
.8495	.0592	.000592
.8995	.0412	.000412
.9497	.0216	.000216

System: 1-butanol + cyclohexane; phases: Liquid
Fixed: Pressure, kPa = 101
Fixed: Temperature, K = 313.15
Property: Excess molar enthalpy (molar enthalpy of mixing), kJ/mol (Liquid); method: Flow calorimetry
Mole fraction of cyclohexane	Excess molar enthalpy (molar enthalpy of mixing), kJ/mol	uncertainty
.0505	.0981	.000981
.1001	.1922	.001922
.1505	.2839	.002839
.2	.3703	.003703
.2505	.4525	.004525
.2999	.5281	.005281
.3501	.5982	.005982
.4003	.6625	.006625
.4504	.7173	.007173
.5003	.7627	.007627
.55	.796	.00796
.5995	.8162	.008162
.6499	.8222	.008222
.7	.8129	.008129
.7499	.7869	.007869
.7995	.745	.00745
.8499	.6815	.006815
.8999	.5925	.005925
.9496	.4575	.004575

System: 1-butanol + 2,2,4-trimethylpentane; phases: Liquid
Fixed: Pressure, kPa = 101
Fixed: Temperature, K = 313.15
Property: Excess molar enthalpy (molar enthalpy of mixing), kJ/mol (Liquid); method: Flow calorimetry
Mole fraction of 2,2,4-trimethylpentane	Excess molar enthalpy (molar enthalpy of mixing), kJ/mol	uncertainty
.0502	.1049	.001049
.1001	.2036	.002036
.1505	.3013	.003013
.2003	.3928	.003928
.2505	.4803	.004803
.3001	.5599	.005599
.3504	.6347	.006347
.4001	.7006	.007006
.4499	.7567	.007567
.5008	.8024	.008024
.5501	.8372	.008372
.5999	.8594	.008594
.6498	.8669	.008669
.7	.8618	.008618
.75	.841	.00841
.7996	.8058	.008058
.8502	.7501	.007501
.9001	.6672	.006672
.9506	.5226	.005226
