Measured thermophysical data. A Raman spectroscopic method for the determination of high pressure vapour liquid equilibria
Source: Fluid Phase Equilib., 2013, 10.1016/j.fluid.2013.09.046
Compound 1: acetone, C3H6O, purity 99.9%
Compound 2: carbon dioxide, CO2, purity 99.5%
Compound 3: water, H2O, purity 99.8%

System: acetone + carbon dioxide + water; phases: Liquid, Gas
Property: Mole fraction of acetone (Liquid); method: Other
Property: Mole fraction of water (Gas); method: Other
Property: Mole fraction of acetone (Gas); method: Other
Temperature, K	Pressure, kPa	Mole fraction of water	Mole fraction of acetone	uncertainty	Mole fraction of water	uncertainty	Mole fraction of acetone	uncertainty
313	10000	.7984	.138	.0005	.3941	.0005	.3851	.0005
313	10000	.9351	.0319	.0005	.0414	.0005	.2574	.0005
353	10000	.7788	.1318	.0005	.5715	.0005	.2471	.0005
353	10000	.8146	.1066	.0005	.4955	.0005	.2781	.0005
353	10000	.8311	.0946	.0005	.4547	.0005	.2933	.0005
353	10000	.8533	.0816	.0005	.3888	.0005	.3133	.0005
353	10000	.8669	.0699	.0005	.3398	.0005	.3244	.0005
353	10000	.8853	.0594	.0005	.2762	.0005	.3343	.0005
353	10000	.8958	.0515	.0005	.2339	.0005	.3296	.0005
353	10000	.9064	.0437	.0005	.1898	.0005	.3124	.0005
353	10000	.9116	.041	.0005	.1504	.0005	.3147	.0005
313	10000	.8141	.1282	.0005	.3497	.0005	.4041	.0005
353	10000	.9152	.0366	.0005	.1334	.0005	.3049	.0005
313	10000	.844	.1044	.0005	.2844	.0005	.4213	.0005
313	10000	.858	.0938	.0005	.2407	.0005	.4216	.0005
313	10000	.8801	.0753	.0005	.1786	.0005	.4164	.0005
313	10000	.8984	.062	.0005	.137	.0005	.3977	.0005
313	10000	.9153	.0501	.0005	.0955	.0005	.3572	.0005
313	10000	.9237	.0431	.0005	.0717	.0005	.3227	.0005
313	10000	.9307	.0371	.0005	.054	.0005	.2913	.0005
