Measured thermophysical data. Modulating effect of ionic liquid 1-butyl-2,3-dimethylimidazolium chloride on micellization behaviour of cationic surfactant dodecyltrimethylammonium bromide in aqueous media
Source: Fluid Phase Equilib., 2015, 10.1016/j.fluid.2015.01.013
Compound 1: dodecyltrimethylammonium bromide, C15H34BrN, purity 99%
Compound 2: 1-butyl-2,3-dimethylimidazolium chloride, C9H17ClN2, purity 98%
Compound 3: water, H2O, purity 99.8%

System: dodecyltrimethylammonium bromide + water + 1-butyl-2,3-dimethylimidazolium chloride; phases: Liquid
Fixed: Pressure, kPa = 100
Property: Electrical conductivity, S/m (Liquid); method: Alternating current cell with electrodes
Temperature, K	Molality, mol/kg of dodecyltrimethylammonium bromide	Mass fraction of 1-butyl-2,3-dimethylimidazolium chloride	Electrical conductivity, S/m	uncertainty
298.15	.0163097	0	.1355	.000007
298.15	.0154031	0	.1308	.000007
298.15	.0145919	0	.1256	.000007
298.15	.0138619	0	.1197	.000007
298.15	.0132014	0	.1141	.000007
298.15	.0126011	0	.1093	.000007
298.15	.0120529	0	.1052	.000007
298.15	.0115505	0	.1007	.000007
298.15	.0110883	0	.097	.000007
298.15	.0106616	0	.0935	.000007
298.15	.0102666	0	.0904	.000007
298.15	.0098998	0	.0873	.000007
298.15	.0095583	0	.0843	.000007
298.15	.0092395	0	.0815	.000007
298.15	.0089414	0	.0792	.000007
298.15	.0086619	0	.0768	.000007
298.15	.0152876	.0005	.1509	.000007
298.15	.0144825	.0005	.146	.000007
298.15	.0137579	.0005	.1406	.000007
298.15	.0131024	.0005	.1355	.000007
298.15	.0125066	.0005	.1308	.000007
298.15	.0119625	.0005	.1264	.000007
298.15	.0114639	.0005	.1223	.000007
298.15	.0110051	.0005	.1187	.000007
298.15	.0105817	.0005	.1153	.000007
298.15	.0101896	.0005	.1122	.000007
298.15	.0098255	.0005	.1093	.000007
298.15	.0094866	.0005	.1064	.000007
298.15	.0091702	.0005	.1038	.000007
298.15	.0088743	.0005	.1014	.000007
298.15	.0085969	.0005	.0992	.000007
298.15	.0145054	.001	.1724	.000007
298.15	.0137798	.001	.1666	.000007
298.15	.0131232	.001	.1617	.000007
298.15	.0125264	.001	.1574	.000007
298.15	.0119815	.001	.1534	.000007
298.15	.0114821	.001	.1499	.000007
298.15	.0110226	.001	.1465	.000007
298.15	.0105984	.001	.1428	.000007
298.15	.0102057	.001	.1397	.000007
298.15	.0098411	.001	.137	.000007
298.15	.0095016	.001	.1346	.000007
298.15	.0091848	.001	.1318	.000007
298.15	.0088884	.001	.1297	.000007
298.15	.0086105	.001	.1275	.000007
298.15	.0137257	.005	.3628	.000007
298.15	.0130717	.005	.3603	.000007
298.15	.0124772	.005	.358	.000007
298.15	.0119345	.005	.3543	.000007
298.15	.011437	.005	.3514	.000007
298.15	.0109793	.005	.3481	.000007
298.15	.0105568	.005	.3439	.000007
298.15	.0101657	.005	.341	.000007
298.15	.0098025	.005	.3385	.000007
298.15	.0094643	.005	.3364	.000007
298.15	.0091487	.005	.3345	.000007
298.15	.0088535	.005	.3324	.000007
298.15	.0085767	.005	.3305	.000007
298.15	.0104672	.01	.5467	.000007
298.15	.0099912	.01	.5436	.000007
298.15	.0095566	.01	.5402	.000007
298.15	.0091582	.01	.5372	.000007
298.15	.0087917	.01	.5339	.000007
298.15	.0084534	.01	.5318	.000007
298.15	.0081402	.01	.5302	.000007
298.15	.0078494	.01	.5279	.000007
298.15	.0075786	.01	.5264	.000007
298.15	.0073259	.01	.5245	.000007
298.15	.0070895	.01	.5221	.000007
298.15	.0068679	.01	.5196	.000007
308.15	.0163097	0	.1391	.000007
308.15	.0154031	0	.1332	.000007
308.15	.0145919	0	.1267	.000007
308.15	.0138619	0	.1203	.000007
308.15	.0132014	0	.1157	.000007
308.15	.0126011	0	.1103	.000007
308.15	.0120529	0	.1059	.000007
308.15	.0115505	0	.1017	.000007
308.15	.0110883	0	.0977	.000007
308.15	.0106616	0	.0945	.000007
308.15	.0102666	0	.0912	.000007
308.15	.0098998	0	.0879	.000007
308.15	.0095583	0	.0849	.000007
308.15	.0092395	0	.0825	.000007
308.15	.0089414	0	.08	.000007
308.15	.0086619	0	.0776	.000007
308.15	.0152876	.0005	.1581	.000007
308.15	.0144825	.0005	.1512	.000007
308.15	.0137579	.0005	.1448	.000007
308.15	.0131024	.0005	.1392	.000007
308.15	.0125066	.0005	.1341	.000007
308.15	.0119625	.0005	.13	.000007
308.15	.0114639	.0005	.1254	.000007
308.15	.0110051	.0005	.1214	.000007
308.15	.0105817	.0005	.1177	.000007
308.15	.0101896	.0005	.1146	.000007
308.15	.0098255	.0005	.1116	.000007
308.15	.0094866	.0005	.1086	.000007
308.15	.0091702	.0005	.1057	.000007
308.15	.0088743	.0005	.1034	.000007
308.15	.0085969	.0005	.1011	.000007
308.15	.0153118	.001	.1842	.000007
308.15	.0145055	.001	.1776	.000007
308.15	.0137798	.001	.1719	.000007
308.15	.0131232	.001	.1662	.000007
308.15	.0125264	.001	.1615	.000007
308.15	.0119815	.001	.157	.000007
308.15	.0114821	.001	.1527	.000007
308.15	.0110226	.001	.1493	.000007
308.15	.0105984	.001	.1458	.000007
308.15	.0102058	.001	.1425	.000007
308.15	.0098411	.001	.1398	.000007
308.15	.0095016	.001	.1371	.000007
308.15	.0091848	.001	.1346	.000007
308.15	.0088884	.001	.1322	.000007
308.15	.0086105	.001	.1299	.000007
308.15	.0144485	.005	.3748	.000007
308.15	.0137257	.005	.3722	.000007
308.15	.0130717	.005	.3692	.000007
308.15	.0124772	.005	.3664	.000007
308.15	.0119345	.005	.3625	.000007
308.15	.011437	.005	.359	.000007
308.15	.0109793	.005	.3554	.000007
308.15	.0105568	.005	.3521	.000007
308.15	.0101657	.005	.3492	.000007
308.15	.0098025	.005	.3462	.000007
308.15	.0094643	.005	.3435	.000007
308.15	.0091487	.005	.3412	.000007
308.15	.0088535	.005	.3388	.000007
308.15	.0085767	.005	.3366	.000007
308.15	.0115697	.01	.5609	.000007
308.15	.0109909	.01	.5583	.000007
308.15	.0104672	.01	.5554	.000007
308.15	.0099912	.01	.5523	.000007
308.15	.0095566	.01	.5493	.000007
308.15	.0091582	.01	.5463	.000007
308.15	.0087917	.01	.5437	.000007
308.15	.0084534	.01	.5412	.000007
308.15	.0081402	.01	.5389	.000007
308.15	.0078494	.01	.5367	.000007
308.15	.0075786	.01	.535	.000007
308.15	.0073259	.01	.533	.000007
308.15	.0070895	.01	.5312	.000007
308.15	.0068679	.01	.5295	.000007
318.15	.0173298	0	.1516	.000007
318.15	.0163097	0	.1437	.000007
318.15	.0154031	0	.1372	.000007
318.15	.0145919	0	.1305	.000007
318.15	.0138619	0	.1245	.000007
318.15	.0132015	0	.1189	.000007
318.15	.0126011	0	.1139	.000007
318.15	.0120529	0	.1093	.000007
318.15	.0115505	0	.1052	.000007
318.15	.0110883	0	.1011	.000007
318.15	.0106616	0	.0975	.000007
318.15	.0102666	0	.0941	.000007
318.15	.0098998	0	.091	.000007
318.15	.0095583	0	.0881	.000007
318.15	.0092395	0	.0849	.000007
318.15	.0089414	0	.0823	.000007
318.15	.0086619	0	.0801	.000007
318.15	.0171998	.0005	.1733	.000007
318.15	.0161874	.0005	.1663	.000007
318.15	.0152876	.0005	.1584	.000007
318.15	.0144825	.0005	.1526	.000007
318.15	.0137579	.0005	.1453	.000007
318.15	.0131025	.0005	.1404	.000007
318.15	.0125066	.0005	.134	.000007
318.15	.0119626	.0005	.1298	.000007
318.15	.0114639	.0005	.1267	.000007
318.15	.0110051	.0005	.1225	.000007
318.15	.0105817	.0005	.1188	.000007
318.15	.0101896	.0005	.1154	.000007
318.15	.0098255	.0005	.1124	.000007
318.15	.0094866	.0005	.1095	.000007
318.15	.0091702	.0005	.1066	.000007
318.15	.0088743	.0005	.1043	.000007
318.15	.0085969	.0005	.102	.000007
318.15	.0162131	.001	.1882	.000007
318.15	.0153118	.001	.1822	.000007
318.15	.0145055	.001	.1759	.000007
318.15	.0137798	.001	.1697	.000007
318.15	.0131232	.001	.1642	.000007
318.15	.0125264	.001	.1593	.000007
318.15	.0119815	.001	.1543	.000007
318.15	.0114821	.001	.1503	.000007
318.15	.0110226	.001	.1465	.000007
318.15	.0105984	.001	.1424	.000007
318.15	.0102058	.001	.1391	.000007
318.15	.0098411	.001	.1364	.000007
318.15	.0095016	.001	.133	.000007
318.15	.0091848	.001	.1303	.000007
318.15	.0088884	.001	.1276	.000007
318.15	.0086105	.001	.1253	.000007
318.15	.0137257	.005	.3821	.000007
318.15	.0130717	.005	.3782	.000007
318.15	.0124772	.005	.3737	.000007
318.15	.0119345	.005	.3692	.000007
318.15	.011437	.005	.3651	.000007
318.15	.0109793	.005	.3609	.000007
318.15	.0105568	.005	.3569	.000007
318.15	.0101657	.005	.3544	.000007
318.15	.0098025	.005	.351	.000007
318.15	.0094643	.005	.3477	.000007
318.15	.0091487	.005	.3446	.000007
318.15	.0088535	.005	.3421	.000007
318.15	.0085767	.005	.3398	.000007
318.15	.0115697	.1	.5714	.000007
318.15	.0109909	.1	.5677	.000007
318.15	.0104673	.1	.5656	.000007
318.15	.0099912	.1	.5613	.000007
318.15	.0095566	.1	.5574	.000007
318.15	.0091582	.1	.554	.000007
318.15	.0087917	.1	.5499	.000007
318.15	.0084534	.1	.5467	.000007
318.15	.0081402	.1	.544	.000007
318.15	.0078494	.1	.5434	.000007
318.15	.0075786	.1	.5414	.000007
318.15	.0073259	.1	.5397	.000007
318.15	.0070895	.1	.5384	.000007
318.15	.0068679	.1	.5357	.000007
