Measured thermophysical data. Solid-liquid equilibrium of quaternary system Na+//H2PO4- , Cl- , [SO4]2- + H2O at 298.15 K
Source: Fluid Phase Equilib., 2015, 10.1016/j.fluid.2015.02.023
Compound 1: water, H2O
Compound 2: sodium dihydrogen phosphate dihydrate, H6NaO6P, purity 99%
Compound 3: sodium chloride, ClNa, purity 99.5%
Compound 4: sodium sulfate, Na2O4S, purity 99%

System: sodium chloride + water + sodium sulfate; phases: Liquid, Crystal, Crystal
Fixed: Temperature, K = 298.15
Property: Mass fraction of sodium sulfate (Liquid); method: isothermal solution method
Pressure, kPa	Mass fraction of sodium sulfate	uncertainty
100	.0699	

System: sodium chloride + water + sodium sulfate; phases: Liquid, Crystal, Crystal
Fixed: Temperature, K = 298.15
Property: Mass fraction of sodium chloride (Liquid); method: isothermal solution method
Pressure, kPa	Mass fraction of sodium chloride	uncertainty
100	.229	

System: sodium chloride + water + sodium sulfate; phases: Liquid, Crystal of intercomponent compound 1, Crystal
Fixed: Temperature, K = 298.15
Property: Mass fraction of sodium sulfate (Liquid); method: isothermal solution method
Pressure, kPa	Mass fraction of sodium sulfate	uncertainty
100	.1475	

System: sodium chloride + water + sodium sulfate; phases: Liquid, Crystal of intercomponent compound 1, Crystal
Fixed: Temperature, K = 298.15
Property: Mass fraction of sodium chloride (Liquid); method: isothermal solution method
Pressure, kPa	Mass fraction of sodium chloride	uncertainty
100	.1449	

System: sodium chloride + water + sodium sulfate; phases: Liquid
Fixed: Temperature, K = 298.15
Fixed: Pressure, kPa = 88.4
Property: Refractive index (Na D-line) (Liquid); method: Standard Abbe refractometry
Mass fraction of sodium sulfate	Mass fraction of sodium chloride	Refractive index (Na D-line)	uncertainty
.0699	.229	1.3831	.0002
.1475	.1449	1.3754	.0002

System: sodium chloride + water + sodium sulfate; phases: Liquid
Fixed: Temperature, K = 298.15
Fixed: Pressure, kPa = 88.4
Property: Electrical conductivity, S/m (Liquid); method: Alternating current cell with electrodes
Mass fraction of sodium sulfate	Mass fraction of sodium chloride	Electrical conductivity, S/m	uncertainty
.0699	.229	1.674	.003
.1475	.1449	.559	.003

System: sodium chloride + water + sodium sulfate; phases: Liquid
Fixed: Temperature, K = 298.15
Fixed: Pressure, kPa = 88.4
Property: Mass density, kg/m3 (Liquid); method: Pycnometric method
Mass fraction of sodium sulfate	Mass fraction of sodium chloride	Mass density, kg/m3	uncertainty
.0699	.229	1234.7	1
.1475	.1449	1247.6	1

System: sodium chloride + water + sodium sulfate; phases: Liquid
Fixed: Temperature, K = 298.15
Fixed: Pressure, kPa = 88.4
Property: Viscosity, Pa*s (Liquid); method: Capillary tube (Ostwald; Ubbelohde) method
Mass fraction of sodium sulfate	Mass fraction of sodium chloride	Viscosity, Pa*s	uncertainty
.0699	.229	.001653	.00005
.1475	.1449	.0018247	.00005

System: water + sodium sulfate + sodium dihydrogen phosphate dihydrate; phases: Liquid, Crystal of intercomponent compound 1, Crystal
Fixed: Temperature, K = 298.15
Property: Mass fraction of sodium dihydrogen phosphate dihydrate (Liquid); method: isothermal solution method
Pressure, kPa	Mass fraction of sodium dihydrogen phosphate dihydrate	uncertainty
100	.3947	

System: water + sodium sulfate + sodium dihydrogen phosphate dihydrate; phases: Liquid, Crystal of intercomponent compound 1, Crystal
Fixed: Temperature, K = 298.15
Property: Mass fraction of sodium sulfate (Liquid); method: isothermal solution method
Pressure, kPa	Mass fraction of sodium sulfate	uncertainty
100	.0822	

System: water + sodium sulfate + sodium dihydrogen phosphate dihydrate; phases: Liquid, Crystal of intercomponent compound 1, Crystal
Fixed: Temperature, K = 298.15
Property: Mass fraction of sodium dihydrogen phosphate dihydrate (Liquid); method: isothermal solution method
Pressure, kPa	Mass fraction of sodium dihydrogen phosphate dihydrate	uncertainty
100	.2654	

System: water + sodium sulfate + sodium dihydrogen phosphate dihydrate; phases: Liquid, Crystal of intercomponent compound 1, Crystal
Fixed: Temperature, K = 298.15
Property: Mass fraction of sodium sulfate (Liquid); method: isothermal solution method
Pressure, kPa	Mass fraction of sodium sulfate	uncertainty
100	.1597	

System: water + sodium sulfate + sodium dihydrogen phosphate dihydrate; phases: Liquid
Fixed: Temperature, K = 298.15
Fixed: Pressure, kPa = 88.4
Property: Refractive index (Na D-line) (Liquid); method: Standard Abbe refractometry
Mass fraction of sodium dihydrogen phosphate dihydrate	Mass fraction of sodium sulfate	Refractive index (Na D-line)	uncertainty
.3947	.0822	1.3999	.0002
.2654	.1597	1.3901	.0002

System: water + sodium sulfate + sodium dihydrogen phosphate dihydrate; phases: Liquid
Fixed: Temperature, K = 298.15
Fixed: Pressure, kPa = 88.4
Property: Electrical conductivity, S/m (Liquid); method: Alternating current cell with electrodes
Mass fraction of sodium dihydrogen phosphate dihydrate	Mass fraction of sodium sulfate	Electrical conductivity, S/m	uncertainty
.3947	.0822	.656	.003
.2654	.1597	.354	.003

System: water + sodium sulfate + sodium dihydrogen phosphate dihydrate; phases: Liquid
Fixed: Temperature, K = 298.15
Fixed: Pressure, kPa = 88.4
Property: Mass density, kg/m3 (Liquid); method: Pycnometric method
Mass fraction of sodium dihydrogen phosphate dihydrate	Mass fraction of sodium sulfate	Mass density, kg/m3	uncertainty
.3947	.0822	1482	1
.2654	.1597	1391.3	1

System: water + sodium sulfate + sodium dihydrogen phosphate dihydrate; phases: Liquid
Fixed: Temperature, K = 298.15
Fixed: Pressure, kPa = 88.4
Property: Viscosity, Pa*s (Liquid); method: Capillary tube (Ostwald; Ubbelohde) method
Mass fraction of sodium dihydrogen phosphate dihydrate	Mass fraction of sodium sulfate	Viscosity, Pa*s	uncertainty
.3947	.0822	.0169613	.00005
.2654	.1597	.0071052	.00005

System: sodium chloride + water + sodium dihydrogen phosphate dihydrate; phases: Liquid, Crystal of intercomponent compound 1, Crystal
Fixed: Temperature, K = 298.15
Property: Mass fraction of sodium dihydrogen phosphate dihydrate (Liquid); method: isothermal solution method
Pressure, kPa	Mass fraction of sodium dihydrogen phosphate dihydrate	uncertainty
100	.258	

System: sodium chloride + water + sodium dihydrogen phosphate dihydrate; phases: Liquid, Crystal of intercomponent compound 1, Crystal
Fixed: Temperature, K = 298.15
Property: Mass fraction of sodium chloride (Liquid); method: isothermal solution method
Pressure, kPa	Mass fraction of sodium chloride	uncertainty
100	.1536	

System: sodium chloride + water + sodium dihydrogen phosphate dihydrate; phases: Liquid
Fixed: Temperature, K = 298.15
Fixed: Pressure, kPa = 88.4
Property: Refractive index (Na D-line) (Liquid); method: Standard Abbe refractometry
Mass fraction of sodium dihydrogen phosphate dihydrate	Mass fraction of sodium chloride	Refractive index (Na D-line)	uncertainty
.258	.1536	1.3927	.0002

System: sodium chloride + water + sodium dihydrogen phosphate dihydrate; phases: Liquid
Fixed: Temperature, K = 298.15
Fixed: Pressure, kPa = 88.4
Property: Electrical conductivity, S/m (Liquid); method: Alternating current cell with electrodes
Mass fraction of sodium dihydrogen phosphate dihydrate	Mass fraction of sodium chloride	Electrical conductivity, S/m	uncertainty
.258	.1536	.583	.003

System: sodium chloride + water + sodium dihydrogen phosphate dihydrate; phases: Liquid
Fixed: Temperature, K = 298.15
Fixed: Pressure, kPa = 88.4
Property: Mass density, kg/m3 (Liquid); method: Pycnometric method
Mass fraction of sodium dihydrogen phosphate dihydrate	Mass fraction of sodium chloride	Mass density, kg/m3	uncertainty
.258	.1536	1335.9	1

System: sodium chloride + water + sodium dihydrogen phosphate dihydrate; phases: Liquid
Fixed: Temperature, K = 298.15
Fixed: Pressure, kPa = 88.4
Property: Viscosity, Pa*s (Liquid); method: Capillary tube (Ostwald; Ubbelohde) method
Mass fraction of sodium dihydrogen phosphate dihydrate	Mass fraction of sodium chloride	Viscosity, Pa*s	uncertainty
.258	.1536	.0055979	.00005
