Measured thermophysical data. Solid-liquid-gas equilibrium for binary systems containing N2:  Measurement and modeling
Source: Fluid Phase Equilib., 2011, 10.1016/j.fluid.2010.08.012
Compound 1: dodecanoic acid, C12H24O2
Compound 2: myristic acid, C14H28O2
Compound 3: palmitic acid, C16H32O2
Compound 4: n-octadecanoic acid, C18H36O2
Compound 5: ibuprofen, C13H18O2
Compound 6: nitrogen, N2, purity 99.9%

System: dodecanoic acid + nitrogen; phases: Crystal, Liquid, Gas
Property: Vapor or sublimation pressure, kPa (Crystal); method: Closed cell (Static) method
Temperature, K	Vapor or sublimation pressure, kPa	uncertainty
317.2	110	100
317.4	1430	100
317.6	4300	100
317.8	7230	100
318	8430	100
318.1	12260	100

System: myristic acid + nitrogen; phases: Crystal, Liquid, Gas
Property: Vapor or sublimation pressure, kPa (Crystal); method: Closed cell (Static) method
Temperature, K	Vapor or sublimation pressure, kPa	uncertainty
327.1	100	100
327.4	3020	100
327.7	5990	100
327.9	8980	100
328.3	13920	100

System: myristic acid + nitrogen; phases: Crystal, Liquid, Gas
Property: Vapor or sublimation pressure, kPa (Crystal); method: DSC
Temperature, K	Vapor or sublimation pressure, kPa	uncertainty
327.4	3000	100
327.7	7000	100
327.9	11000	100

System: palmitic acid + nitrogen; phases: Crystal, Liquid, Gas
Property: Vapor or sublimation pressure, kPa (Crystal); method: Closed cell (Static) method
Temperature, K	Vapor or sublimation pressure, kPa	uncertainty
335	110	100
335	1560	100
335	3420	100
335.1	5870	100
335.5	8660	100
335.7	10750	100
335.7	12900	100

System: n-octadecanoic acid + nitrogen; phases: Crystal, Liquid, Gas
Property: Vapor or sublimation pressure, kPa (Crystal); method: Closed cell (Static) method
Temperature, K	Vapor or sublimation pressure, kPa	uncertainty
341.3	140	100
341.3	1490	100
341.4	3560	100
341.5	5540	100
341.7	7580	100
341.9	10620	100
342	12620	100

System: nitrogen + ibuprofen; phases: Crystal, Liquid, Gas
Property: Vapor or sublimation pressure, kPa (Crystal); method: Closed cell (Static) method
Temperature, K	Vapor or sublimation pressure, kPa	uncertainty
345.2	100	100
346.7	2960	100
347.9	6950	100
348.2	9080	100
348.2	11530	100
