Measured thermophysical data. Ultrasonic study on binary mixture containing dimethylformamide and methanol  over the entire miscibility range (0less thanxless than1) at temperatures 303 323K
Source: Fluid Phase Equilib., 2009, 10.1016/j.fluid.2009.04.009
Compound 1: dimethylformamide, C3H7NO
Compound 2: methanol, CH4O

System: methanol + dimethylformamide; phases: Liquid
Property: Speed of sound, m/s (Liquid); method: Single crystal variable path ultrasonic interferometer operating at 2 MHz
Temperature, K	Mole fraction of dimethylformamide	Mass density, kg/m3	Speed of sound, m/s	uncertainty
303	0	771.9	1089	
303	.2	818.7	1133.8	
303	.4	801.17	1201.2	
303	.6	853.8	1249.2	
303	.8	888.88	1339.4	
303	1	953.21	1469.8	
308	0	764.7	1069.6	
308	.2	811.76	1126.8	
308	.4	794.11	1187.4	
308	.6	852.94	1243.4	
308	.8	888.23	1320	
308	1	952.94	1433.2	
313	0	757.4	1057.2	
313	.2	798.81	1110.8	
313	.4	786.98	1169.2	
313	.6	846.15	1219.4	
313	.8	881.65	1313.2	
313	1	952.66	1418	
318	0	750	1033.2	
318	.2	785.71	1097.7	
318	.4	773.8	1152	
318	.6	833.33	1208	
318	.8	875	1275.4	
318	1	952.38	1402.2	
323	0	718.6	1008	
323	.2	778.44	1095.4	
323	.4	754.49	1136	
323	.6	803.35	1189	
323	.8	868.26	1257.2	
323	1	952.09	1374.8	
