Measured thermophysical data. Phase equilibrium for the systems diisopropyl ether, isopropyl alcohol + 2,2,4-trimethylpentane and + n-heptane at 101.3 kPa
Source: Fluid Phase Equilib., 2010, 10.1016/j.fluid.2009.11.027
Compound 1: 1-methyl-1-(1-methylethoxy)ethane, C6H14O, purity 99%
Compound 2: 2-propanol, C3H8O, purity 99.5%
Compound 3: 2,2,4-trimethylpentane, C8H18, purity 99.8%
Compound 4: heptane, C7H16, purity 99%

System: 2-propanol + 1-methyl-1-(1-methylethoxy)ethane + 2,2,4-trimethylpentane; phases: Liquid, Gas
Fixed: Pressure, kPa = 101.3
Property: Boiling temperature at pressure P, K (Liquid); method: Ebulliometric method (Recirculating still)
Mole fraction of 1-methyl-1-(1-methylethoxy)ethane	Mole fraction of 2-propanol	Boiling temperature at pressure P, K	uncertainty
.708	.252	340.34	.01
.732	.168	340.98	.01
.63	.27	341.05	.01
.821	.085	341.48	.01
.48	.487	341.53	.01
.902	.054	341.54	.01
.514	.383	341.68	.01
.596	.198	342.46	.01
.399	.498	342.65	.01
.488	.307	342.67	.01
.699	.091	343.2	.01
.383	.414	343.43	.01
.306	.649	343.5	.01
.294	.603	344.06	.01
.509	.178	344.21	.01
.398	.289	344.49	.01
.281	.517	344.5	.01
.292	.398	345.29	.01
.398	.206	345.6	.01
.293	.324	345.85	.01
.191	.704	345.92	.01
.643	.051	346.06	.01
.499	.103	346.34	.01
.179	.505	346.62	.01
.191	.428	346.71	.01
.136	.658	346.86	.01
.326	.16	347.47	.01
.211	.266	347.64	.01
.085	.6	348.09	.01
.099	.81	348.32	.01
.098	.379	348.59	.01
.049	.567	348.86	.01
.204	.17	349.13	.01
.034	.74	349.41	.01
.041	.32	350.08	.01
.298	.094	350.26	.01
.451	.052	350.5	.01
.053	.902	350.77	.01
.085	.172	350.97	.01
.094	.074	354.61	.01
.236	.052	354.79	.01
.049	.039	359.63	.01

System: 2-propanol + 1-methyl-1-(1-methylethoxy)ethane + 2,2,4-trimethylpentane; phases: Gas, Liquid
Fixed: Pressure, kPa = 101.3
Property: Boiling temperature at pressure P, K (Gas); method: Ebulliometric method (Recirculating still)
Mole fraction of 1-methyl-1-(1-methylethoxy)ethane	Mole fraction of 2-propanol	Boiling temperature at pressure P, K	uncertainty
.736	.252	340.34	.01
.748	.211	340.98	.01
.678	.275	341.05	.01
.834	.13	341.48	.01
.614	.365	341.53	.01
.908	.082	341.54	.01
.607	.334	341.68	.01
.637	.258	342.46	.01
.533	.393	342.65	.01
.557	.323	342.67	.01
.747	.155	343.2	.01
.479	.382	343.43	.01
.508	.451	343.5	.01
.447	.456	344.06	.01
.56	.274	344.21	.01
.46	.353	344.49	.01
.394	.442	344.5	.01
.367	.42	345.29	.01
.455	.326	345.6	.01
.356	.405	345.85	.01
.337	.532	345.92	.01
.75	.095	346.06	.01
.58	.212	346.34	.01
.254	.495	346.62	.01
.253	.476	346.71	.01
.232	.551	346.86	.01
.391	.33	347.47	.01
.262	.43	347.64	.01
.134	.571	348.09	.01
.238	.629	348.32	.01
.134	.519	348.59	.01
.071	.588	348.86	.01
.264	.394	349.13	.01
.064	.654	349.41	.01
.057	.54	350.08	.01
.398	.269	350.26	.01
.606	.113	350.5	.01
.163	.751	350.77	.01
.121	.462	350.97	.01
.156	.348	354.61	.01
.379	.189	354.79	.01
.095	.266	359.63	.01

System: 2-propanol + 1-methyl-1-(1-methylethoxy)ethane + heptane; phases: Liquid, Gas
Fixed: Pressure, kPa = 101.3
Property: Boiling temperature at pressure P, K (Liquid); method: Ebulliometric method (Recirculating still)
Mole fraction of 1-methyl-1-(1-methylethoxy)ethane	Mole fraction of 2-propanol	Boiling temperature at pressure P, K	uncertainty
.714	.237	340.32	.01
.718	.176	340.98	.01
.612	.28	341.17	.01
.502	.452	341.37	.01
.896	.059	341.4	.01
.803	.088	341.5	.01
.398	.404	341.82	.01
.591	.19	342.66	.01
.399	.493	342.7	.01
.481	.31	342.85	.01
.695	.089	343.16	.01
.306	.65	343.5	.01
.37	.426	343.63	.01
.294	.61	343.98	.01
.523	.155	344.44	.01
.417	.258	344.65	.01
.265	.531	344.79	.01
.302	.384	345.23	.01
.196	.71	345.71	.01
.396	.191	345.85	.01
.291	.305	346.12	.01
.196	.499	346.3	.01
.64	.04	346.89	.01
.185	.404	347.01	.01
.496	.082	347.21	.01
.12	.673	347.24	.01
.297	.188	347.39	.01
.188	.296	347.79	.01
.092	.6	347.89	.01
.101	.813	348.28	.01
.094	.408	348.58	.01
.046	.569	348.9	.01
.2	.168	349.22	.01
.041	.736	349.27	.01
.052	.347	349.58	.01
.438	.056	350	.01
.094	.189	350.4	.01
.296	.084	350.48	.01
.055	.899	350.66	.01
.09	.071	354.52	.01
.232	.046	355.14	.01
.045	.036	359.65	.01

System: 2-propanol + 1-methyl-1-(1-methylethoxy)ethane + heptane; phases: Gas, Liquid
Fixed: Pressure, kPa = 101.3
Property: Boiling temperature at pressure P, K (Gas); method: Ebulliometric method (Recirculating still)
Mole fraction of 1-methyl-1-(1-methylethoxy)ethane	Mole fraction of 2-propanol	Boiling temperature at pressure P, K	uncertainty
.737	.24	340.32	.01
.736	.214	340.98	.01
.666	.277	341.17	.01
.624	.344	341.37	.01
.899	.084	341.4	.01
.82	.132	341.5	.01
.6	.333	341.82	.01
.635	.254	342.66	.01
.534	.386	342.7	.01
.553	.325	342.85	.01
.746	.153	343.16	.01
.509	.451	343.5	.01
.471	.387	343.63	.01
.457	.45	343.98	.01
.577	.256	344.44	.01
.477	.337	344.65	.01
.382	.45	344.79	.01
.379	.413	345.23	.01
.357	.523	345.71	.01
.456	.321	345.85	.01
.352	.403	346.12	.01
.277	.483	346.3	.01
.764	.075	346.89	.01
.243	.474	347.01	.01
.593	.186	347.21	.01
.214	.564	347.24	.01
.359	.361	347.39	.01
.239	.45	347.79	.01
.145	.564	347.89	.01
.244	.629	348.28	.01
.129	.524	348.58	.01
.067	.585	348.9	.01
.257	.398	349.22	.01
.075	.644	349.27	.01
.074	.536	349.58	.01
.579	.142	350	.01
.131	.464	350.4	.01
.397	.265	350.48	.01
.167	.746	350.66	.01
.148	.356	354.52	.01
.373	.184	355.14	.01
.087	.266	359.65	.01
