Measured thermophysical data. Study on the thermodynamic properties for ionic liquid [C4mim][OAc]( 1-butyl-3- methylimidazolium acetate)
Source: Fluid Phase Equilib., 2013, 10.1016/j.fluid.2013.09.032
Compound 1: 1-butyl-3-methylimidazolium acetate, C10H18N2O2, purity 99%
Compound 2: water, H2O, purity 99.8%

System: water + 1-butyl-3-methylimidazolium acetate; phases: Liquid
Fixed: Pressure, kPa = 100
Property: Molar enthalpy of solution, kJ/mol (Liquid); method: Isoperibol calorimetry
Temperature, K	Molality, mol/kg of 1-butyl-3-methylimidazolium acetate	Molar enthalpy of solution, kJ/mol	uncertainty
288.15	.01811	-54.92	.022
288.15	.01941	-54.77	.025
288.15	.02304	-54.44	.029
288.15	.02489	-54.25	.03
288.15	.02725	-53.94	.034
288.15	.02969	-53.8	.035
288.15	.03076	-53.76	.036
288.15	.0332	-53.5	.039
288.15	.03799	-53.31	.045
288.15	.04151	-53.03	.048
288.15	.0438	-52.86	.051
288.15	.04817	-52.55	.059
293.15	.01554	-53.38	.018
293.15	.01917	-53.23	.022
293.15	.02017	-53.16	.024
293.15	.02286	-53.04	.026
293.15	.02588	-52.88	.031
293.15	.02934	-52.68	.035
293.15	.03138	-52.48	.038
293.15	.03276	-52.3	.038
293.15	.03538	-52.12	.042
293.15	.03811	-51.94	.043
293.15	.04269	-51.69	.05
293.15	.04855	-51.47	.056
298.15	.01553	-51.52	.017
298.15	.01781	-51.38	.019
298.15	.02163	-51.13	.024
298.15	.02453	-50.97	.025
298.15	.02619	-50.85	.029
298.15	.02941	-50.78	.032
298.15	.03086	-50.7	.034
298.15	.03271	-50.67	.036
298.15	.03565	-50.48	.039
298.15	.03938	-50.33	.043
298.15	.04042	-50.24	.044
298.15	.04642	-50.08	.052
303.15	.01536	-50.04	.015
303.15	.01882	-49.92	.017
303.15	.02185	-49.78	.021
303.15	.0238	-49.66	.024
303.15	.02699	-49.53	.026
303.15	.0293	-49.38	.029
303.15	.03159	-49.28	.031
303.15	.03418	-49.18	.033
303.15	.03783	-49.05	.034
303.15	.03975	-48.89	.037
303.15	.04177	-48.75	.041
303.15	.04657	-48.58	.045
308.15	.01599	-47.99	.013
308.15	.0196	-47.83	.016
308.15	.0215	-47.67	.02
308.15	.02415	-47.57	.022
308.15	.02675	-47.44	.025
308.15	.03003	-47.28	.027
308.15	.03138	-47.13	.03
308.15	.03377	-46.96	.031
308.15	.0364	-46.78	.032
308.15	.039	-46.67	.036
308.15	.04343	-46.49	.04
308.15	.04745	-46.34	.043
