Measured thermophysical data. Solid-liquid equilibrium in ternary mixtures of ethyl laurate, ethyl palmitate and ethyl myristate
Source: Fluid Phase Equilib., 2014, 10.1016/j.fluid.2013.10.024
Compound 1: ethyl laurate, C14H28O2, purity 98%
Compound 2: ethyl palmitate, C18H36O2, purity 99%
Compound 3: ethyl myristate, C16H32O2, purity 99%

System: ethyl laurate + ethyl myristate; phases: Liquid, Crystal
Fixed: Pressure, kPa = 100
Property: Solid-liquid equilibrium temperature, K (Liquid); method: DSC/DTA
Mole fraction of ethyl laurate	Solid-liquid equilibrium temperature, K	uncertainty
0	287.23	.3
.1041	285.44	.3
.2015	284.09	.3
.315	281.37	.3
.3933	279.64	.3
.4888	277.56	.3
.5407	275.63	.3
.5992	274.5	.3
.6704	270.78	.3

System: ethyl laurate + ethyl myristate; phases: Liquid, Crystal
Fixed: Pressure, kPa = 100
Property: Solid-liquid equilibrium temperature, K (Liquid); method: DSC/DTA
Mole fraction of ethyl laurate	Solid-liquid equilibrium temperature, K	uncertainty
.8955	271.14	.3
1	273.2	.3

System: ethyl laurate + ethyl palmitate; phases: Liquid, Crystal
Fixed: Pressure, kPa = 100
Property: Solid-liquid equilibrium temperature, K (Liquid); method: DSC/DTA
Mole fraction of ethyl laurate	Solid-liquid equilibrium temperature, K	uncertainty
0	298.23	.3
.1281	295.52	.3
.2077	294.31	.3
.306	292.4	.3
.3935	291.17	.3
.5029	288.48	.3
.5929	285.75	.3
.7033	282.1	.3
.7868	278.23	.3
.8502	272	.3

System: ethyl laurate + ethyl palmitate; phases: Liquid, Crystal
Fixed: Pressure, kPa = 100
Property: Solid-liquid equilibrium temperature, K (Liquid); method: DSC/DTA
Mole fraction of ethyl laurate	Solid-liquid equilibrium temperature, K	uncertainty
.9502	271.38	.3
1	273.2	.3

System: ethyl laurate + ethyl palmitate; phases: Liquid, Crystal, Crystal
Property: Solid-liquid equilibrium temperature, K (Liquid); method: DSC/DTA
Mole fraction of ethyl laurate	Solid-liquid equilibrium temperature, K	uncertainty
.9106	269.16	.3

System: ethyl laurate + ethyl myristate + ethyl palmitate; phases: Liquid, Crystal
Fixed: Pressure, kPa = 100
Property: Solid-liquid equilibrium temperature, K (Liquid); method: DSC/DTA
Mole fraction of ethyl laurate	Mole fraction of ethyl palmitate	Solid-liquid equilibrium temperature, K	uncertainty
.099	.0862	283.09	.3
.2337	.0988	279.18	.3
.2945	.1423	277.04	.3
.4436	.1011	272.92	.3
.4884	.1151	272	.3
.5809	.1363	270.09	.3
.6683	.1406	268.66	.3
.7858	.1016	267.25	.3
.126	.2015	280.54	.3
.206	.2068	278.98	.3
.3042	.2078	277.25	.3
.4109	.1962	274.69	.3
.4994	.1985	272.57	.3
.5979	.1995	270.3	.3
.709	.1995	278	.3
.1085	.302	282.07	.3
.1911	.3163	281.33	.3
.3131	.2958	279.07	.3
.3874	.3085	282.19	.3
.4892	.3005	282.93	.3
.5813	.3036	283.03	.3
.127	.3838	283.28	.3
.2118	.3937	285.05	.3
.3074	.4103	286.36	.3
.3967	.3694	285.49	.3
.4717	.437	286.95	.3
.0936	.5113	287.85	.3
.1965	.4807	287.74	.3
.3087	.5157	289.15	.3
.3643	.5203	289.15	.3
.1301	.5929	290.82	.3
.1934	.5886	290.93	.3
.2886	.5416	289.96	.3
.1312	.6668	292.59	.3
.1857	.6926	293.2	.3
.103	.8026	295.25	.3

System: ethyl myristate + ethyl palmitate; phases: Liquid, Crystal
Fixed: Pressure, kPa = 100
Property: Solid-liquid equilibrium temperature, K (Liquid); method: DSC/DTA
Mole fraction of ethyl myristate	Solid-liquid equilibrium temperature, K	uncertainty
0	298.23	.3
.0518	297.12	.3
.0982	296.76	.3
.1955	294.94	.3
.3103	292.68	.3
.4036	290.5	.3
.4861	288.24	.3

System: ethyl myristate + ethyl palmitate; phases: Liquid, Crystal
Fixed: Pressure, kPa = 100
Property: Solid-liquid equilibrium temperature, K (Liquid); method: DSC/DTA
Mole fraction of ethyl myristate	Solid-liquid equilibrium temperature, K	uncertainty
.8999	284.38	.3
.9476	284.94	.3
1	287.23	.3
