Measured thermophysical data. Solubility of sulfamethizole in some propylene glycol + water mixtures at several  temperatures
Source: Fluid Phase Equilib., 2012, 10.1016/j.fluid.2012.03.014
Compound 1: 4-amino-N-(5-methyl-1,3,4-thiadiazol-2-yl)benzenesulfonamide, C9H10N4O2S2, purity 99.5%
Compound 2: 1,2-propanediol, C3H8O2, purity 99.8%
Compound 3: water, H2O, purity 99.9%

System: 4-amino-N-(5-methyl-1,3,4-thiadiazol-2-yl)benzenesulfonamide; phases: Crystal, Liquid, Air at 1 atmosphere
Property: Molar enthalpy of transition or fusion, kJ/mol (Crystal); method: DSC/DTA
Molar enthalpy of transition or fusion, kJ/mol	uncertainty
46.4	.7

System: 4-amino-N-(5-methyl-1,3,4-thiadiazol-2-yl)benzenesulfonamide; phases: Crystal, Liquid, Air at 1 atmosphere
Property: Normal melting temperature, K (Crystal); method: DSC/DTA
Normal melting temperature, K	uncertainty
480.8	.5

System: 1,2-propanediol + 4-amino-N-(5-methyl-1,3,4-thiadiazol-2-yl)benzenesulfonamide + water; phases: Liquid, Crystal
Fixed: Pressure, kPa = 101
Property: Mole fraction of 4-amino-N-(5-methyl-1,3,4-thiadiazol-2-yl)benzenesulfonamide (Liquid); method: UV-Vis Spectrophotometry
Temperature, K	Solvent: Mass fraction of 1,2-propanediol	Mole fraction of 4-amino-N-(5-methyl-1,3,4-thiadiazol-2-yl)benzenesulfonamide	uncertainty
293.15	0	.0000259	.0000005
293.15	.1	.0000396	.0000003
293.15	.2	.000064	.0000006
293.15	.3	.0001172	.0000006
293.15	.4	.000237	.000006
293.15	.5	.000481	.00001
293.15	.6	.000895	.000012
293.15	.7	.001403	.000011
293.15	.8	.002315	.000017
293.15	.9	.00344	.00005
293.15	1	.00501	.00008
298.15	0	.00003302	.00000023
298.15	.1	.0000485	.000001
298.15	.2	.0000796	.0000014
298.15	.3	.0001536	.0000018
298.15	.4	.0002839	.0000022
298.15	.5	.000566	.000006
298.15	.6	.001062	.00002
298.15	.7	.001779	.000004
298.15	.8	.002829	.000009
298.15	.9	.00399	.00005
298.15	1	.0058	.00005
303.15	0	.0000397	.0000003
303.15	.1	.0000646	.0000003
303.15	.2	.0001073	.0000013
303.15	.3	.0001995	.0000022
303.15	.4	.000372	.000009
303.15	.5	.000753	.000019
303.15	.6	.001342	.000028
303.15	.7	.002066	.000016
303.15	.8	.003356	.000008
303.15	.9	.00471	.00006
303.15	1	.00659	.0001
308.15	0	.00004638	.0000002
308.15	.1	.0000776	.0000003
308.15	.2	.0001336	.0000008
308.15	.3	.0002498	.0000015
308.15	.4	.000452	.000013
308.15	.5	.000893	.000016
308.15	.6	.001561	.000012
308.15	.7	.002415	.000027
308.15	.8	.0038	.00005
308.15	.9	.0055	.00006
308.15	1	.0076	.00009
313.15	0	.0000576	.0000004
313.15	.1	.0001	.0000014
313.15	.2	.0001731	.0000006
313.15	.3	.000318	.000003
313.15	.4	.000619	.000004
313.15	.5	.001144	.000012
313.15	.6	.00199	.00004
313.15	.7	.00304	.00003
313.15	.8	.004745	.00001
313.15	.9	.00657	.00005
313.15	1	.00904	.00006

System: 1,2-propanediol + 4-amino-N-(5-methyl-1,3,4-thiadiazol-2-yl)benzenesulfonamide + water; phases: Liquid, Crystal
Fixed: Pressure, kPa = 101
Property: Activity coefficient of 4-amino-N-(5-methyl-1,3,4-thiadiazol-2-yl)benzenesulfonamide (Liquid); method: From solubilities in this work
Temperature, K	Solvent: Mass fraction of 1,2-propanediol	Activity coefficient of 4-amino-N-(5-methyl-1,3,4-thiadiazol-2-yl)benzenesulfonamide	uncertainty
293.15	0	124.1	3
293.15	.1	81	.6
293.15	.2	50.1	.5
293.15	.3	27.38	.14
293.15	.4	13.56	.21
293.15	.5	6.67	.15
293.15	.6	3.58	.05
293.15	.7	2.288	.017
293.15	.8	1.386	.01
293.15	.9	.933	.015
293.15	1	.641	.01
298.15	0	118.3	2
298.15	.1	80.5	2
298.15	.2	49.1	1.1
298.15	.3	25.4	.5
298.15	.4	13.76	.23
298.15	.5	6.89	.12
298.15	.6	3.68	.09
298.15	.7	2.2	.03
298.15	.8	1.38	.021
298.15	.9	.978	.02
298.15	1	.673	.011
303.15	0	119.2	2
303.15	.1	73.3	1.1
303.15	.2	44.2	.9
303.15	.3	23.7	.4
303.15	.4	12.7	.4
303.15	.5	6.29	.18
303.15	.6	3.53	.09
303.15	.7	2.29	.04
303.15	.8	1.411	.021
303.15	.9	1.006	.02
303.15	1	.719	.015
308.15	0	123.5	1.9
308.15	.1	73.9	1.1
308.15	.2	42.9	.7
308.15	.3	22.9	.4
308.15	.4	12.7	.4
308.15	.5	6.41	.15
308.15	.6	3.67	.06
308.15	.7	2.37	.04
308.15	.8	1.51	.03
308.15	.9	1.041	.02
308.15	1	.754	.014
313.15	0	120	2
313.15	.1	69	1.4
313.15	.2	39.9	.6
313.15	.3	21.7	.4
313.15	.4	11.16	.18
313.15	.5	6.04	.11
313.15	.6	3.46	.08
313.15	.7	2.27	.04
313.15	.8	1.455	.022
313.15	.9	1.05	.017
313.15	1	.764	.012
