Measured thermophysical data. Application of [EMim][ESO4] ionic liquid as solvent in the extraction of toluene from cycloalkanes: Study of liquid-liquid equilibria at T = 298.15 K
Source: Fluid Phase Equilib., 2011, 10.1016/j.fluid.2011.01.021
Compound 1: toluene, C7H8, purity 99.9%
Compound 2: cyclohexane, C6H12, purity 99.9%
Compound 3: methylcyclohexane, C7H14, purity 99.9%
Compound 4: cyclooctane, C8H16, purity 99%
Compound 5: 1-ethyl-3-methylimidazolium ethyl sulfate, C8H16N2O4S

System: 1-ethyl-3-methylimidazolium ethyl sulfate; phases: Liquid
Fixed: Pressure, kPa = 101.325
Property: Mass density, kg/m3 (Liquid); method: Vibrating tube method
Temperature, K	Mass density, kg/m3	uncertainty
298.15	1237.23	.03

System: 1-ethyl-3-methylimidazolium ethyl sulfate; phases: Liquid
Fixed: Pressure, kPa = 101.325
Property: Refractive index (Na D-line) (Liquid); method: Standard Abbe refractometry
Temperature, K	Refractive index (Na D-line)	uncertainty
298.15	1.4791	.00004

System: toluene + cyclohexane + 1-ethyl-3-methylimidazolium ethyl sulfate; phases: Liquid mixture 1, Liquid mixture 2
Fixed: Pressure, kPa = 101
Fixed: Temperature, K = 298.15
Property: Mole fraction of toluene (Liquid mixture 1); method: Visual Observation
Mole fraction of cyclohexane	Mole fraction of toluene	uncertainty
.027	0	.007
.021	.042	.007
.016	.079	.007
.017	.102	.007
.014	.116	.007
.012	.154	.007
.013	.173	.007
.012	.193	.007
0	.248	.007

System: toluene + cyclohexane + 1-ethyl-3-methylimidazolium ethyl sulfate; phases: Liquid
Fixed: Pressure, kPa = 101
Fixed: Temperature, K = 298.15
Property: Mass density, kg/m3 (Liquid); method: Vibrating tube method
Mole fraction of cyclohexane	Mole fraction of toluene	Mass density, kg/m3	uncertainty
.027	0	1230.94	.03
.021	.042	1225.19	.03
.016	.079	1218.82	.03
.017	.102	1214.35	.03
.014	.116	1212.2	.03
.012	.154	1204.88	.03
.013	.173	1201.35	.03
.012	.193	1198.08	.03
0	.248	1189.13	.03

System: toluene + cyclohexane + 1-ethyl-3-methylimidazolium ethyl sulfate; phases: Liquid
Fixed: Pressure, kPa = 101
Fixed: Temperature, K = 298.15
Property: Mass density, kg/m3 (Liquid); method: Vibrating tube method
Mole fraction of cyclohexane	Mole fraction of toluene	Mass density, kg/m3	uncertainty
.02	.059	1221.45	.03
.016	.137	1207.91	.03
.012	.139	1208.34	.03

System: toluene + cyclohexane + 1-ethyl-3-methylimidazolium ethyl sulfate; phases: Liquid mixture 1, Liquid mixture 2
Fixed: Temperature, K = 298.15
Fixed: Pressure, kPa = 101
Property: Mole fraction of toluene (Liquid mixture 1); method: Titration method
Mole fraction of cyclohexane	Mole fraction of toluene	uncertainty
.02	.059	.007
.016	.137	.007
.012	.139	.007

System: toluene + cyclohexane + 1-ethyl-3-methylimidazolium ethyl sulfate; phases: Liquid mixture 2, Liquid mixture 1
Fixed: Temperature, K = 298.15
Fixed: Pressure, kPa = 100
Property: Mole fraction of cyclohexane (Liquid mixture 2); method: Density calibration data
Property: Mole fraction of cyclohexane (Liquid mixture 1); method: Density calibration data
Property: Mole fraction of toluene (Liquid mixture 1); method: Density calibration data
Mole fraction of toluene	Mole fraction of cyclohexane	uncertainty	Mole fraction of cyclohexane	uncertainty	Mole fraction of toluene	uncertainty
.016	.025	.007	.945	.007	.055	.007
.213	.006	.007	.102	.007	.898	.007
.032	.022	.007	.879	.007	.121	.007
.048	.021	.007	.819	.007	.181	.007
.063	.02	.007	.756	.007	.244	.007
.093	.017	.007	.628	.007	.372	.007
.122	.015	.007	.506	.007	.494	.007
.119	.015	.007	.51	.007	.49	.007
.149	.012	.007	.375	.007	.625	.007
.18	.01	.007	.244	.007	.756	.007

System: toluene + cyclooctane + 1-ethyl-3-methylimidazolium ethyl sulfate; phases: Liquid mixture 1, Liquid mixture 2
Fixed: Pressure, kPa = 101
Fixed: Temperature, K = 298.15
Property: Mole fraction of toluene (Liquid mixture 1); method: Visual Observation
Mole fraction of cyclooctane	Mole fraction of toluene	uncertainty
.012	0	.007
.012	.022	.007
.01	.042	.007
.009	.079	.007
.008	.099	.007
.014	.135	.007
.013	.155	.007
.02	.211	.007
.017	.228	.007
0	.248	.007

System: toluene + cyclooctane + 1-ethyl-3-methylimidazolium ethyl sulfate; phases: Liquid
Fixed: Pressure, kPa = 101
Fixed: Temperature, K = 298.15
Property: Mass density, kg/m3 (Liquid); method: Vibrating tube method
Mole fraction of cyclooctane	Mole fraction of toluene	Mass density, kg/m3	uncertainty
.012	0	1232.65	.03
.012	.022	1229.63	.03
.01	.042	1226.45	.03
.009	.079	1220.67	.03
.008	.099	1217.51	.03
.014	.135	1210.98	.03
.013	.155	1207.72	.03
.02	.211	1196.08	.03
.017	.228	1192.42	.03
0	.248	1189.13	.03

System: toluene + cyclooctane + 1-ethyl-3-methylimidazolium ethyl sulfate; phases: Liquid
Fixed: Pressure, kPa = 101
Fixed: Temperature, K = 298.15
Property: Mass density, kg/m3 (Liquid); method: Vibrating tube method
Mole fraction of cyclooctane	Mole fraction of toluene	Mass density, kg/m3	uncertainty
.012	.057	1223.75	.03
.01	.114	1214.29	.03
.015	.171	1204.43	.03

System: toluene + cyclooctane + 1-ethyl-3-methylimidazolium ethyl sulfate; phases: Liquid mixture 1, Liquid mixture 2
Fixed: Temperature, K = 298.15
Fixed: Pressure, kPa = 101
Property: Mole fraction of toluene (Liquid mixture 1); method: Titration method
Mole fraction of cyclooctane	Mole fraction of toluene	uncertainty
.012	.057	.007
.01	.114	.007
.015	.171	.007

System: toluene + cyclooctane + 1-ethyl-3-methylimidazolium ethyl sulfate; phases: Liquid mixture 2, Liquid mixture 1
Fixed: Temperature, K = 298.15
Fixed: Pressure, kPa = 100
Property: Mole fraction of cyclooctane (Liquid mixture 2); method: Density calibration data
Property: Mole fraction of cyclooctane (Liquid mixture 1); method: Density calibration data
Property: Mole fraction of toluene (Liquid mixture 1); method: Density calibration data
Mole fraction of toluene	Mole fraction of cyclooctane	uncertainty	Mole fraction of cyclooctane	uncertainty	Mole fraction of toluene	uncertainty
.014	.009	.007	.938	.007	.062	.007
.028	.01	.007	.887	.007	.113	.007
.045	.011	.007	.826	.007	.174	.007
.063	.012	.007	.761	.007	.239	.007
.101	.013	.007	.631	.007	.369	.007
.124	.013	.007	.508	.007	.492	.007
.157	.014	.007	.367	.007	.633	.007
.188	.012	.007	.24	.007	.76	.007
.222	.01	.007	.101	.007	.899	.007

System: methylcyclohexane + toluene + 1-ethyl-3-methylimidazolium ethyl sulfate; phases: Liquid mixture 1, Liquid mixture 2
Fixed: Pressure, kPa = 101
Fixed: Temperature, K = 298.15
Property: Mole fraction of toluene (Liquid mixture 1); method: Visual Observation
Mole fraction of methylcyclohexane	Mole fraction of toluene	uncertainty
.015	0	.007
.013	.042	.007
.009	.101	.007
.008	.138	.007
.007	.179	.007
.005	.199	.007
0	.248	.007
0	.248	.007

System: methylcyclohexane + toluene + 1-ethyl-3-methylimidazolium ethyl sulfate; phases: Liquid
Fixed: Pressure, kPa = 101
Fixed: Temperature, K = 298.15
Property: Mass density, kg/m3 (Liquid); method: Vibrating tube method
Mole fraction of methylcyclohexane	Mole fraction of toluene	Mass density, kg/m3	uncertainty
.015	0	1233.21	.03
.013	.042	1227.56	.03
.009	.101	1217.72	.03
.008	.138	1209.84	.03
.007	.179	1202.97	.03
.005	.199	1198.33	.03
0	.248	1189.13	.03
0	.248	1189.13	.03

System: methylcyclohexane + toluene + 1-ethyl-3-methylimidazolium ethyl sulfate; phases: Liquid
Fixed: Pressure, kPa = 101
Fixed: Temperature, K = 298.15
Property: Mass density, kg/m3 (Liquid); method: Vibrating tube method
Mole fraction of methylcyclohexane	Mole fraction of toluene	Mass density, kg/m3	uncertainty
.012	.079	1221.23	.03
.009	.117	1214.15	.03
.003	.217	1196.49	.03

System: methylcyclohexane + toluene + 1-ethyl-3-methylimidazolium ethyl sulfate; phases: Liquid mixture 1, Liquid mixture 2
Fixed: Temperature, K = 298.15
Fixed: Pressure, kPa = 101
Property: Mole fraction of toluene (Liquid mixture 1); method: Titration method
Mole fraction of methylcyclohexane	Mole fraction of toluene	uncertainty
.012	.079	.007
.009	.117	.007
.003	.217	.007

System: methylcyclohexane + toluene + 1-ethyl-3-methylimidazolium ethyl sulfate; phases: Liquid mixture 2, Liquid mixture 1
Fixed: Pressure, kPa = 100
Fixed: Temperature, K = 298.15
Property: Mole fraction of methylcyclohexane (Liquid mixture 2); method: Density calibration data
Property: Mole fraction of methylcyclohexane (Liquid mixture 1); method: Density calibration data
Property: Mole fraction of toluene (Liquid mixture 1); method: Density calibration data
Mole fraction of toluene	Mole fraction of methylcyclohexane	uncertainty	Mole fraction of methylcyclohexane	uncertainty	Mole fraction of toluene	uncertainty
.021	.013	.007	.926	.007	.074	.007
.222	.003	.007	.097	.007	.903	.007
.037	.013	.007	.871	.007	.129	.007
.053	.013	.007	.811	.007	.189	.007
.069	.012	.007	.744	.007	.256	.007
.069	.012	.007	.748	.007	.252	.007
.1	.011	.007	.618	.007	.382	.007
.128	.009	.007	.496	.007	.504	.007
.157	.007	.007	.356	.007	.644	.007
.189	.005	.007	.229	.007	.771	.007
