Measured thermophysical data. Thermodynamic studies on the phase equilibria of ternary {ionic liquid, 1-hexyl-3-methyl imidazolium chloride + D-fructose or sucrose + water} systems at 298.15 K and atmospheric pressure.
Source: Fluid Phase Equilib., 2017, 10.1016/j.fluid.2016.12.024
Compound 1: D-fructose, C6H12O6, purity 99.5%
Compound 2: D-sucrose, C12H22O11, purity 99.5%
Compound 3: 1-hexyl-3-methylimidazolium chloride, C10H19ClN2, purity 98%
Compound 4: water, H2O, purity 99.8%

System: D-fructose + water + 1-hexyl-3-methylimidazolium chloride; phases: Liquid
Fixed: Temperature, K = 298.15
Fixed: Pressure, kPa = 100
Property: (Relative) activity of water (Liquid); method: Other
Molality, mol/kg of 1-hexyl-3-methylimidazolium chloride	Molality, mol/kg of D-fructose	(Relative) activity of water	uncertainty
.5752	0	.984	
.3691	.2896	.984	
.2785	.415	.984	
0	.8656	.984	
.6228	0	.9828	
.3988	.3124	.9828	
.2995	.4472	.9828	
0	.9295	.9828	
.6303	0	.9824	
.404	.3167	.9824	
.3014	.4501	.9824	
0	.9369	.9824	
.6469	0	.9818	
.4872	.2317	.9818	
.2899	.5319	.9818	
0	1.0012	.9818	
.7447	0	.9796	
.4586	.3592	.9796	
.3453	.515	.9796	
0	1.0748	.9796	
.9163	0	.9756	
.5657	.4436	.9756	
.4238	.632	.9756	
0	1.3238	.9756	
.9542	0	.9742	
.7066	.3354	.9742	
.4012	.7358	.9742	
0	1.4051	.9742	
1.809	0	.9552	
1.0844	.78	.9552	
.747	1.2428	.9552	
0	2.3928	.9552	

System: D-sucrose + water + 1-hexyl-3-methylimidazolium chloride; phases: Liquid
Fixed: Temperature, K = 298.15
Fixed: Pressure, kPa = 100
Property: (Relative) activity of water (Liquid); method: Other
Molality, mol/kg of 1-hexyl-3-methylimidazolium chloride	Molality, mol/kg of D-sucrose	(Relative) activity of water	uncertainty
.4172	0	.9877	
.3555	.0826	.9877	
.2606	.2219	.9877	
0	.6455	.9877	
.5788	0	.984	
.5205	.1064	.984	
.2614	.4187	.984	
0	.8328	.984	
.6105	0	.9832	
.5549	.1133	.9832	
.2814	.45	.9832	
0	.8861	.9832	
.6794	0	.9807	
.5654	.1642	.9807	
.3768	.4034	.9807	
0	.9625	.9807	
.7004	0	.9801	
.5947	.1727	.9801	
.3996	.4278	.9801	
0	.9826	.9801	
.9932	0	.9742	
.8832	.1801	.9742	
.4291	.6867	.9742	
0	1.3118	.9742	
1.6514	0	.9572	
1.2998	.354	.9572	
.8547	.7905	.9572	
0	2.0001	.9572	

System: D-fructose + water; phases: Liquid
Fixed: Temperature, K = 298.15
Fixed: Pressure, kPa = 100
Property: (Relative) activity of water (Liquid); method: Other
Molality, mol/kg of D-fructose	(Relative) activity of water	uncertainty
.8682	.984	
.8781	.9838	
.9295	.9828	
.9369	.9826	
.9486	.9825	
1.2115	.9775	
1.3238	.9756	
1.4051	.9742	
1.5416	.9716	
2.1117	.9606	
2.3928	.9552	

System: D-fructose + water; phases: Liquid
Fixed: Temperature, K = 298.15
Fixed: Pressure, kPa = 100
Property: Osmotic coefficient (Liquid); method: Isopiestic method
Molality, mol/kg of D-fructose	Osmotic coefficient	uncertainty
.8682	1.034	
.8781	1.035	
.9295	1.038	
.9369	1.042	
.9486	1.032	
1.2115	1.042	
1.3238	1.037	
1.4051	1.032	
1.5416	1.039	
2.1117	1.056	
2.3928	1.064	

System: D-sucrose + water; phases: Liquid
Fixed: Temperature, K = 298.15
Fixed: Pressure, kPa = 100
Property: (Relative) activity of water (Liquid); method: Other
Molality, mol/kg of D-sucrose	(Relative) activity of water	uncertainty
.4335	.9919	
.6622	.9873	
.7615	.9852	
.9766	.9812	
1.0002	.9807	
1.1848	.9764	
1.2152	.9754	
1.257	.9749	
1.4139	.9718	
1.7817	.9633	
1.9074	.9596	
2.3272	.9494	
2.5131	.9449	
2.5355	.9434	
2.7387	.9377	
2.8242	.936	
4.2075	.8994	
5.328	.8697	
5.3643	.8668	

System: D-sucrose + water; phases: Liquid
Fixed: Temperature, K = 298.15
Fixed: Pressure, kPa = 100
Property: Osmotic coefficient (Liquid); method: Isopiestic method
Molality, mol/kg of D-sucrose	Osmotic coefficient	uncertainty
.4335	1.04	
.6622	1.068	
.7615	1.089	
.9766	1.08	
1.0002	1.084	
1.1848	1.118	
1.2152	1.139	
1.257	1.122	
1.4139	1.121	
1.7817	1.165	
1.9074	1.2	
2.3272	1.238	
2.5131	1.252	
2.5355	1.276	
2.7387	1.305	
2.8242	1.3	
4.2075	1.399	
5.328	1.454	
5.3643	1.48	

System: water + 1-hexyl-3-methylimidazolium chloride; phases: Liquid
Fixed: Temperature, K = 298.15
Fixed: Pressure, kPa = 100
Property: (Relative) activity of water (Liquid); method: Other
Molality, mol/kg of 1-hexyl-3-methylimidazolium chloride	(Relative) activity of water	uncertainty
.4172	.9877	
.5788	.984	
.6105	.9832	
.6303	.9826	
.7447	.9796	
.9163	.9756	
.9932	.9742	
1.809	.9552	
2.1267	.9475	

System: water + 1-hexyl-3-methylimidazolium chloride; phases: Liquid
Fixed: Temperature, K = 298.15
Fixed: Pressure, kPa = 100
Property: Osmotic coefficient (Liquid); method: Isopiestic method
Molality, mol/kg of 1-hexyl-3-methylimidazolium chloride	Osmotic coefficient	uncertainty
.4172	.822	
.5788	.774	
.6105	.77	
.6303	.774	
.7447	.767	
.9163	.749	
.9932	.731	
1.809	.703	
2.1267	.701	
