Measured thermophysical data. Separation of hex-1-ene/hexane and cyclohexene/cyclohexane compounds with [EMIM]-based ionic liquids
Source: Fluid Phase Equilib., 2016, 10.1016/j.fluid.2016.08.008
Compound 1: 1-ethyl-3-methylimidazolium bis(trifluoromethylsulfonyl)imide, C8H11F6N3O4S2
Compound 2: 1-ethyl-3-methylimidazolium dicyanamide, C8H11N5
Compound 3: 1-ethyl-3-methylimidazolium tricyanomethanide, C10H11N5
Compound 4: hexane, C6H14
Compound 5: hex-1-ene, C6H12
Compound 6: cyclohexane, C6H12
Compound 7: cyclohexene, C6H10

System: hexane + hex-1-ene + 1-ethyl-3-methylimidazolium bis(trifluoromethylsulfonyl)imide; phases: Liquid mixture 2, Liquid mixture 1
Fixed: Pressure, kPa = 101.3
Property: Mole fraction of 1-ethyl-3-methylimidazolium bis(trifluoromethylsulfonyl)imide (Liquid mixture 2); method: Chromatography
Property: Mole fraction of hex-1-ene (Liquid mixture 1); method: Chromatography
Property: Mole fraction of 1-ethyl-3-methylimidazolium bis(trifluoromethylsulfonyl)imide (Liquid mixture 1); method: Chromatography
Temperature, K	Mole fraction of hex-1-ene	Mole fraction of 1-ethyl-3-methylimidazolium bis(trifluoromethylsulfonyl)imide	uncertainty	Mole fraction of hex-1-ene	uncertainty	Mole fraction of 1-ethyl-3-methylimidazolium bis(trifluoromethylsulfonyl)imide	uncertainty
298.15	0	.966	.003	0	.003	0	.003
298.15	.043	.94	.003	.541	.003	0	.003
298.15	.048	.938	.003	.589	.003	0	.003
298.15	.058	.933	.003	.723	.003	0	.003
298.15	.063	.93	.003	.79	.003	0	.003
298.15	.068	.927	.003	.838	.003	0	.003
298.15	.073	.924	.003	.874	.003	0	.003
298.15	.074	.923	.003	.918	.003	0	.003
298.15	.079	.921	.003	1	.003	0	.003
298.15	.002	.964	.003	.023	.003	0	.003
298.15	.004	.963	.003	.056	.003	0	.003
298.15	.01	.961	.003	.131	.003	0	.003
298.15	.015	.958	.003	.203	.003	0	.003
298.15	.019	.954	.003	.251	.003	0	.003
298.15	.024	.952	.003	.31	.003	0	.003
298.15	.026	.95	.003	.362	.003	0	.003
298.15	.036	.945	.003	.458	.003	0	.003

System: hexane + hex-1-ene + 1-ethyl-3-methylimidazolium dicyanamide; phases: Liquid mixture 2, Liquid mixture 1
Fixed: Pressure, kPa = 101.3
Property: Mole fraction of hex-1-ene (Liquid mixture 2); method: Chromatography
Property: Mole fraction of hex-1-ene (Liquid mixture 1); method: Chromatography
Property: Mole fraction of 1-ethyl-3-methylimidazolium dicyanamide (Liquid mixture 1); method: Chromatography
Temperature, K	Mole fraction of 1-ethyl-3-methylimidazolium dicyanamide	Mole fraction of hex-1-ene	uncertainty	Mole fraction of hex-1-ene	uncertainty	Mole fraction of 1-ethyl-3-methylimidazolium dicyanamide	uncertainty
298.15	.994	0	.003	0	.003	0	.003
298.15	.986	.013	.003	.793	.003	0	.003
298.15	.985	.014	.003	.871	.003	0	.003
298.15	.98	.02	.003	1	.003	0	.003
298.15	.994	.001	.003	.046	.003	0	.003
298.15	.994	.002	.003	.089	.003	0	.003
298.15	.992	.003	.003	.167	.003	0	.003
298.15	.992	.005	.003	.225	.003	0	.003
298.15	.99	.006	.003	.307	.003	0	.003
298.15	.989	.008	.003	.378	.003	0	.003
298.15	.988	.009	.003	.448	.003	0	.003
298.15	.988	.01	.003	.55	.003	0	.003

System: hexane + hex-1-ene + 1-ethyl-3-methylimidazolium tricyanomethanide; phases: Liquid mixture 2, Liquid mixture 1
Fixed: Pressure, kPa = 101.3
Property: Mole fraction of 1-ethyl-3-methylimidazolium tricyanomethanide (Liquid mixture 2); method: Chromatography
Property: Mole fraction of hex-1-ene (Liquid mixture 1); method: Chromatography
Property: Mole fraction of 1-ethyl-3-methylimidazolium tricyanomethanide (Liquid mixture 1); method: Chromatography
Temperature, K	Mole fraction of hex-1-ene	Mole fraction of 1-ethyl-3-methylimidazolium tricyanomethanide	uncertainty	Mole fraction of hex-1-ene	uncertainty	Mole fraction of 1-ethyl-3-methylimidazolium tricyanomethanide	uncertainty
298.15	0	.988	.003	0	.003	0	.003
298.15	.03	.966	.003	.701	.003	0	.003
298.15	.033	.964	.003	.777	.003	0	.003
298.15	.034	.963	.003	.85	.003	0	.003
298.15	.037	.962	.003	.924	.003	0	.003
298.15	.038	.961	.003	.978	.003	0	.003
298.15	.04	.96	.003	.997	.003	0	.003
298.15	.001	.987	.003	.037	.003	0	.003
298.15	.004	.987	.003	.118	.003	0	.003
298.15	.005	.983	.003	.187	.003	0	.003
298.15	.008	.983	.003	.271	.003	0	.003
298.15	.013	.976	.003	.359	.003	0	.003
298.15	.017	.975	.003	.451	.003	0	.003
298.15	.019	.975	.003	.515	.003	0	.003
298.15	.024	.97	.003	.561	.003	0	.003
298.15	.028	.967	.003	.647	.003	0	.003

System: cyclohexane + cyclohexene + 1-ethyl-3-methylimidazolium bis(trifluoromethylsulfonyl)imide; phases: Liquid mixture 2, Liquid mixture 1
Fixed: Pressure, kPa = 101.3
Property: Mole fraction of 1-ethyl-3-methylimidazolium bis(trifluoromethylsulfonyl)imide (Liquid mixture 2); method: Chromatography
Property: Mole fraction of cyclohexene (Liquid mixture 1); method: Chromatography
Property: Mole fraction of 1-ethyl-3-methylimidazolium bis(trifluoromethylsulfonyl)imide (Liquid mixture 1); method: Chromatography
Temperature, K	Mole fraction of cyclohexene	Mole fraction of 1-ethyl-3-methylimidazolium bis(trifluoromethylsulfonyl)imide	uncertainty	Mole fraction of cyclohexene	uncertainty	Mole fraction of 1-ethyl-3-methylimidazolium bis(trifluoromethylsulfonyl)imide	uncertainty
298.15	0	.93	.003	0	.003	0	.003
298.15	.086	.89	.003	.69	.003	0	.003
298.15	.102	.881	.003	.764	.003	0	.003
298.15	.107	.879	.003	.82	.003	0	.003
298.15	.12	.873	.003	.918	.003	0	.003
298.15	.129	.868	.003	.962	.003	0	.003
298.15	.138	.862	.003	.998	.003	0	.003
298.15	.006	.928	.003	.038	.003	0	.003
298.15	.017	.922	.003	.12	.003	0	.003
298.15	.022	.919	.003	.159	.003	0	.003
298.15	.037	.912	.003	.267	.003	0	.003
298.15	.048	.907	.003	.354	.003	0	.003
298.15	.057	.903	.003	.406	.003	0	.003
298.15	.065	.899	.003	.513	.003	0	.003
298.15	.08	.892	.003	.614	.003	0	.003

System: cyclohexane + cyclohexene + 1-ethyl-3-methylimidazolium dicyanamide; phases: Liquid mixture 2, Liquid mixture 1
Fixed: Pressure, kPa = 101.3
Property: Mole fraction of cyclohexene (Liquid mixture 2); method: Chromatography
Property: Mole fraction of cyclohexene (Liquid mixture 1); method: Chromatography
Property: Mole fraction of 1-ethyl-3-methylimidazolium dicyanamide (Liquid mixture 1); method: Chromatography
Temperature, K	Mole fraction of 1-ethyl-3-methylimidazolium dicyanamide	Mole fraction of cyclohexene	uncertainty	Mole fraction of cyclohexene	uncertainty	Mole fraction of 1-ethyl-3-methylimidazolium dicyanamide	uncertainty
298.15	.985	0	.003	0	.003	0	.003
298.15	.965	.028	.003	.589	.003	0	.003
298.15	.96	.033	.003	.647	.003	0	.003
298.15	.957	.037	.003	.709	.003	0	.003
298.15	.954	.041	.003	.771	.003	0	.003
298.15	.951	.045	.003	.839	.003	0	.003
298.15	.948	.049	.003	.916	.003	0	.003
298.15	.945	.053	.003	.971	.003	0	.003
298.15	.942	.058	.003	.998	.003	0	.003
298.15	.981	.003	.003	.066	.003	0	.003
298.15	.979	.006	.003	.128	.003	0	.003
298.15	.977	.008	.003	.183	.003	0	.003
298.15	.975	.012	.003	.257	.003	0	.003
298.15	.971	.018	.003	.354	.003	0	.003
298.15	.97	.02	.003	.419	.003	0	.003
298.15	.967	.024	.003	.494	.003	0	.003
298.15	.965	.027	.003	.537	.003	0	.003

System: cyclohexane + cyclohexene + 1-ethyl-3-methylimidazolium tricyanomethanide; phases: Liquid mixture 1, Liquid mixture 2
Fixed: Pressure, kPa = 101.3
Property: Mole fraction of 1-ethyl-3-methylimidazolium tricyanomethanide (Liquid mixture 1); method: Chromatography
Property: Mole fraction of cyclohexene (Liquid mixture 2); method: Chromatography
Property: Mole fraction of 1-ethyl-3-methylimidazolium tricyanomethanide (Liquid mixture 2); method: Chromatography
Temperature, K	Mole fraction of cyclohexene	Mole fraction of 1-ethyl-3-methylimidazolium tricyanomethanide	uncertainty	Mole fraction of cyclohexene	uncertainty	Mole fraction of 1-ethyl-3-methylimidazolium tricyanomethanide	uncertainty
298.15	0	0	.003	0	.003	.953	.003
298.15	.306	0	.003	.033	.003	.932	.003
298.15	.404	0	.003	.046	.003	.924	.003
298.15	.498	0	.003	.057	.003	.918	.003
298.15	.57	0	.003	.062	.003	.918	.003
298.15	.628	0	.003	.07	.003	.914	.003
298.15	.679	0	.003	.072	.003	.913	.003
298.15	.731	0	.003	.078	.003	.91	.003
298.15	.789	0	.003	.083	.003	.909	.003
298.15	.865	0	.003	.091	.003	.903	.003
298.15	.999	0	.003	.093	.003	.907	.003
298.15	.031	0	.003	.003	.003	.95	.003
298.15	.109	0	.003	.011	.003	.945	.003
298.15	.194	0	.003	.022	.003	.938	.003
