Measured thermophysical data. Experiments and theory for the surface tensions of carbonated MDEA - PZ aqueous solutions
Source: Fluid Phase Equilib., 2012, 10.1016/j.fluid.2011.11.007
Compound 1: N-methyldiethanolamine, C5H13NO2, purity 99%
Compound 2: piperazine, C4H10N2, purity 99%
Compound 3: water, H2O

System: N-methyldiethanolamine + piperazine + water; phases: Liquid, Air at 1 atmosphere
Property: Surface tension liquid-gas, N/m (Liquid); method: Ring tensiometer
Temperature, K	Mass fraction of N-methyldiethanolamine	Mass fraction of piperazine	Surface tension liquid-gas, N/m	uncertainty
293.15	.118	.021	.0611	.0005
293.15	.118	.042	.0605	.0005
293.15	.118	.063	.0604	.0005
293.15	.118	.084	.06	.0005
293.15	.236	.021	.0573	.0005
293.15	.236	.042	.0569	.0005
293.15	.236	.063	.0566	.0005
293.15	.236	.084	.0562	.0005
293.15	.354	.021	.0536	.0005
293.15	.354	.042	.0534	.0005
293.15	.354	.063	.0533	.0005
293.15	.354	.084	.0525	.0005
303.15	.118	.021	.0593	.0005
303.15	.118	.042	.0592	.0005
303.15	.118	.063	.0591	.0005
303.15	.118	.084	.0583	.0005
303.15	.236	.021	.0559	.0005
303.15	.236	.042	.0558	.0005
303.15	.236	.063	.0549	.0005
303.15	.236	.084	.0544	.0005
303.15	.354	.021	.0518	.0005
303.15	.354	.042	.0512	.0005
303.15	.354	.063	.0507	.0005
303.15	.354	.084	.0505	.0005
313.15	.118	.021	.0576	.0005
313.15	.118	.042	.0574	.0005
313.15	.118	.063	.0571	.0005
313.15	.118	.084	.057	.0005
313.15	.236	.021	.0547	.0005
313.15	.236	.042	.0542	.0005
313.15	.236	.063	.0538	.0005
313.15	.236	.084	.0526	.0005
313.15	.354	.021	.0503	.0005
313.15	.354	.042	.05	.0005
313.15	.354	.063	.0498	.0005
313.15	.354	.084	.0495	.0005
323.15	.118	.021	.0561	.0005
323.15	.118	.042	.056	.0005
323.15	.118	.063	.0558	.0005
323.15	.118	.084	.0555	.0005
323.15	.236	.021	.053	.0005
323.15	.236	.042	.0526	.0005
323.15	.236	.063	.0519	.0005
323.15	.236	.084	.051	.0005
323.15	.354	.021	.049	.0005
323.15	.354	.042	.0484	.0005
323.15	.354	.063	.0479	.0005
323.15	.354	.084	.0475	.0005
