Measured thermophysical data. Application of 1-hexyl-3-methylimidazolium trifluoromethanesulfonate to the removal of alcohol from mixtures with heptane
Source: Fluid Phase Equilib., 2017, 10.1016/j.fluid.2017.04.005
Compound 1: ethanol, C2H6O, purity 99.5%
Compound 2: 1-propanol, C3H8O, purity 99.5%
Compound 3: 2-propanol, C3H8O, purity 99.5%
Compound 4: 1-hexyl-3-methylimidazolium trifluoromethanesulfonate, C11H19F3N2O3S, purity 99.0%
Compound 5: heptane, C7H16, purity 99.5%

System: ethanol + heptane + 1-hexyl-3-methylimidazolium trifluoromethanesulfonate; phases: Liquid mixture 2, Liquid mixture 1
Fixed: Temperature, K = 298.15
Fixed: Pressure, kPa = 100
Property: Mole fraction of heptane (Liquid mixture 2); method: Chromatography
Property: Mole fraction of heptane (Liquid mixture 1); method: Chromatography
Property: Mole fraction of ethanol (Liquid mixture 1); method: Chromatography
Mole fraction of ethanol	Mole fraction of heptane	uncertainty	Mole fraction of heptane	uncertainty	Mole fraction of ethanol	uncertainty
.251	.06	.001	.975	.001	.025	.001
.42	.068	.001	.957	.001	.043	.001
.524	.077	.001	.939	.001	.061	.001
.617	.087	.001	.922	.001	.077	.001
.668	.097	.001	.892	.001	.108	.001
.705	.104	.001	.869	.001	.13	.001
.725	.108	.001	.86	.001	.139	.001

System: 1-propanol + heptane + 1-hexyl-3-methylimidazolium trifluoromethanesulfonate; phases: Liquid mixture 2, Liquid mixture 1
Fixed: Temperature, K = 298.15
Fixed: Pressure, kPa = 100
Property: Mole fraction of heptane (Liquid mixture 2); method: Chromatography
Property: Mole fraction of heptane (Liquid mixture 1); method: Chromatography
Property: Mole fraction of 1-propanol (Liquid mixture 1); method: Chromatography
Mole fraction of 1-propanol	Mole fraction of heptane	uncertainty	Mole fraction of heptane	uncertainty	Mole fraction of 1-propanol	uncertainty
.126	.091	.001	.975	.001	.02	.001
.212	.111	.001	.964	.001	.036	.001
.291	.113	.001	.945	.001	.055	.001
.395	.126	.001	.915	.001	.085	.001
.459	.132	.001	.876	.001	.124	.001
.526	.132	.001	.832	.001	.167	.001
.573	.164	.001	.792	.001	.207	.001
.606	.198	.001	.747	.001	.252	.001
.608	.245	.001	.713	.001	.286	.001

System: 2-propanol + heptane + 1-hexyl-3-methylimidazolium trifluoromethanesulfonate; phases: Liquid mixture 2, Liquid mixture 1
Fixed: Temperature, K = 298.15
Fixed: Pressure, kPa = 100
Property: Mole fraction of heptane (Liquid mixture 2); method: Chromatography
Property: Mole fraction of heptane (Liquid mixture 1); method: Chromatography
Property: Mole fraction of 2-propanol (Liquid mixture 1); method: Chromatography
Mole fraction of 2-propanol	Mole fraction of heptane	uncertainty	Mole fraction of heptane	uncertainty	Mole fraction of 2-propanol	uncertainty
.109	.094	.001	.996	.001	.004	.001
.239	.1	.001	.981	.001	.018	.001
.32	.114	.001	.965	.001	.035	.001
.403	.132	.001	.93	.001	.07	.001
.462	.171	.001	.875	.001	.125	.001
.505	.213	.001	.821	.001	.178	.001
.51	.267	.001	.766	.001	.23	.001
