Measured thermophysical data. Isothermal vapor liquid equilibria and excess Gibbs free energies in some binary  nitroalkane + chloroalkane mixtures at temperatures from 298.15 K to 318.15 K
Source: Fluid Phase Equilib., 2013, 10.1016/j.fluid.2012.10.015
Compound 1: NM(nitromethane), CH3NO2, purity 98.7%
Compound 2: nitroethane, C2H5NO2, purity 98.9%
Compound 3: butyl chloride, C4H9Cl, purity 99.6%
Compound 4: pentane, 1-chloro-, C5H11Cl, purity 99.8%

System: NM(nitromethane); phases: Liquid
Fixed: Pressure, kPa = 101.325
Property: Refractive index (Na D-line) (Liquid); method: Standard Abbe refractometry
Temperature, K	Refractive index (Na D-line)	uncertainty
298.15	1.37956	.00002

System: NM(nitromethane); phases: Liquid
Fixed: Pressure, kPa = 101.325
Property: Mass density, kg/m3 (Liquid); method: Vibrating tube method
Temperature, K	Mass density, kg/m3	uncertainty
298.15	1130.87	1.12

System: NM(nitromethane); phases: Liquid, Gas
Property: Vapor or sublimation pressure, kPa (Liquid); method: Closed cell (Static) method
Temperature, K	Vapor or sublimation pressure, kPa	uncertainty
298.15	4.83	.02
308.15	7.5	.02
318.15	12.57	.02

System: nitroethane; phases: Liquid
Fixed: Pressure, kPa = 101.325
Property: Refractive index (Na D-line) (Liquid); method: Standard Abbe refractometry
Temperature, K	Refractive index (Na D-line)	uncertainty
298.15	1.38951	.00002

System: nitroethane; phases: Liquid
Fixed: Pressure, kPa = 101.325
Property: Mass density, kg/m3 (Liquid); method: Vibrating tube method
Temperature, K	Mass density, kg/m3	uncertainty
298.15	1044.206	1.12

System: nitroethane; phases: Liquid, Gas
Property: Vapor or sublimation pressure, kPa (Liquid); method: Closed cell (Static) method
Temperature, K	Vapor or sublimation pressure, kPa	uncertainty
298.15	2.95	.02
308.15	4.69	.02
318.15	7.24	.02

System: butyl chloride; phases: Liquid
Fixed: Pressure, kPa = 101.325
Property: Refractive index (Na D-line) (Liquid); method: Standard Abbe refractometry
Temperature, K	Refractive index (Na D-line)	uncertainty
298.15	1.39953	.00002

System: butyl chloride; phases: Liquid
Fixed: Pressure, kPa = 101.325
Property: Mass density, kg/m3 (Liquid); method: Vibrating tube method
Temperature, K	Mass density, kg/m3	uncertainty
298.15	881.172	1.12

System: butyl chloride; phases: Liquid, Gas
Property: Vapor or sublimation pressure, kPa (Liquid); method: Closed cell (Static) method
Temperature, K	Vapor or sublimation pressure, kPa	uncertainty
298.15	13.72	.02
308.15	20.66	.02
318.15	31.46	.02

System: pentane, 1-chloro-; phases: Liquid
Fixed: Pressure, kPa = 101.325
Property: Refractive index (Na D-line) (Liquid); method: Standard Abbe refractometry
Temperature, K	Refractive index (Na D-line)	uncertainty
298.15	1.41015	.00002

System: pentane, 1-chloro-; phases: Liquid
Fixed: Pressure, kPa = 101.325
Property: Mass density, kg/m3 (Liquid); method: Vibrating tube method
Temperature, K	Mass density, kg/m3	uncertainty
298.15	877.089	1.12

System: pentane, 1-chloro-; phases: Liquid, Gas
Property: Vapor or sublimation pressure, kPa (Liquid); method: Closed cell (Static) method
Temperature, K	Vapor or sublimation pressure, kPa	uncertainty
298.15	4.24	.02
308.15	7.09	.02
318.15	10.91	.02

System: nitroethane + butyl chloride; phases: Gas, Liquid
Property: Mole fraction of butyl chloride (Gas); method: Density calibration data
Mole fraction of butyl chloride	Temperature, K	Mole fraction of butyl chloride	uncertainty
0	298.15	0	.001
.051	298.15	.3516	.001
.1346	298.15	.5685	.001
.2264	298.15	.6796	.001
.2715	298.15	.7164	.001
.3237	298.15	.751	.001
.4136	298.15	.7979	.001
.5181	298.15	.839	.001
.6247	298.15	.8715	.001
.6988	298.15	.8908	.001
.7767	298.15	.9101	.001
.8488	298.15	.9297	.001
.9254	298.15	.957	.001
1	298.15	1	.001
0	308.15	0	.001
.051	308.15	.3663	.001
.1346	308.15	.5766	.001
.2264	308.15	.6802	.001
.2715	308.15	.7141	.001
.3237	308.15	.746	.001
.4136	308.15	.7896	.001
.5181	308.15	.8285	.001
.6247	308.15	.8601	.001
.6988	308.15	.8794	.001
.7767	308.15	.8994	.001
.8488	308.15	.9203	.001
.9254	308.15	.9506	.001
1	308.15	1	.001
0	318.15	0	.001
.051	318.15	.3614	.001
.1346	318.15	.5748	.001
.2264	318.15	.6774	.001
.2715	318.15	.7099	.001
.3237	318.15	.7399	.001
.4136	318.15	.7803	.001
.5181	318.15	.8172	.001
.6247	318.15	.8498	.001
.6988	318.15	.8718	.001
.7767	318.15	.8961	.001
.8488	318.15	.9216	.001
.9254	318.15	.9552	.001
1	318.15	1	.001

System: nitroethane + butyl chloride; phases: Liquid, Gas
Property: Vapor or sublimation pressure, kPa (Liquid); method: Closed cell (Static) method
Mole fraction of butyl chloride	Temperature, K	Vapor or sublimation pressure, kPa	uncertainty
0	298.15	2.95	.02
.051	298.15	4.52	.02
.1346	298.15	5.99	.02
.2264	298.15	7.33	.02
.2715	298.15	8.1	.02
.3237	298.15	9.09	.02
.4136	298.15	9.88	.02
.5181	298.15	10.83	.02
.6247	298.15	11.75	.02
.6988	298.15	12.17	.02
.7767	298.15	12.68	.02
.8488	298.15	13.06	.02
.9254	298.15	13.59	.02
1	298.15	13.72	.02
0	308.15	4.69	.02
.051	308.15	6.99	.02
.1346	308.15	9.92	.02
.2264	308.15	12.08	.02
.2715	308.15	13	.02
.3237	308.15	14.33	.02
.4136	308.15	15.47	.02
.5181	308.15	16.79	.02
.6247	308.15	17.88	.02
.6988	308.15	19	.02
.7767	308.15	19.41	.02
.8488	308.15	20.02	.02
.9254	308.15	20.54	.02
1	308.15	20.66	.02
0	318.15	7.24	.02
.051	318.15	11	.02
.1346	318.15	15.1	.02
.2264	318.15	18.79	.02
.2715	318.15	19.73	.02
.3237	318.15	21.5	.02
.4136	318.15	23.41	.02
.5181	318.15	25.25	.02
.6247	318.15	26.94	.02
.6988	318.15	27.91	.02
.7767	318.15	28.88	.02
.8488	318.15	29.83	.02
.9254	318.15	30.73	.02
1	318.15	31.46	.02

System: NM(nitromethane) + pentane, 1-chloro-; phases: Gas, Liquid
Property: Mole fraction of pentane, 1-chloro- (Gas); method: Density calibration data
Mole fraction of pentane, 1-chloro-	Temperature, K	Mole fraction of pentane, 1-chloro-	uncertainty
0	298.15	0	.001
.0588	298.15	.2148	.001
.1118	298.15	.3196	.001
.1669	298.15	.3833	.001
.2533	298.15	.4333	.001
.3465	298.15	.4516	.001
.4166	298.15	.4536	.001
.5076	298.15	.4514	.001
.6002	298.15	.4535	.001
.6977	298.15	.4727	.001
.7645	298.15	.5048	.001
.8333	298.15	.5657	.001
.9136	298.15	.6998	.001
1	298.15	1	.001
0	308.15	0	.001
.0588	308.15	.2299	.001
.1118	308.15	.3424	.001
.1669	308.15	.4095	.001
.2533	308.15	.459	.001
.3465	308.15	.4723	.001
.4166	308.15	.4691	.001
.5076	308.15	.4603	.001
.6002	308.15	.4575	.001
.6977	308.15	.4757	.001
.7645	308.15	.5111	.001
.8333	308.15	.5793	.001
.9136	308.15	.7237	.001
1	308.15	1	.001
0	318.15	0	.001
.0588	318.15	.1945	.001
.1118	318.15	.2896	.001
.1669	318.15	.3484	.001
.2533	318.15	.3975	.001
.3465	318.15	.4208	.001
.4166	318.15	.4294	.001
.5076	318.15	.4386	.001
.6002	318.15	.4543	.001
.6977	318.15	.4891	.001
.7645	318.15	.532	.001
.8333	318.15	.6026	.001
.9136	318.15	.7396	.001
1	318.15	1	.001

System: NM(nitromethane) + pentane, 1-chloro-; phases: Liquid, Gas
Property: Vapor or sublimation pressure, kPa (Liquid); method: Closed cell (Static) method
Mole fraction of pentane, 1-chloro-	Temperature, K	Vapor or sublimation pressure, kPa	uncertainty
0	298.15	4.83	.02
.0588	298.15	5.82	.02
.1118	298.15	6.3	.02
.1669	298.15	6.72	.02
.2533	298.15	7.23	.02
.3465	298.15	7.38	.02
.4166	298.15	7.47	.02
.5076	298.15	7.42	.02
.6002	298.15	7.28	.02
.6977	298.15	6.91	.02
.7645	298.15	6.68	.02
.8333	298.15	6.32	.02
.9136	298.15	5.75	.02
1	298.15	4.24	.02
0	308.15	7.5	.02
.0588	308.15	9.36	.02
.1118	308.15	10.22	.02
.1669	308.15	10.88	.02
.2533	308.15	11.48	.02
.3465	308.15	11.85	.02
.4166	308.15	12.1	.02
.5076	308.15	12.03	.02
.6002	308.15	11.79	.02
.6977	308.15	11.49	.02
.7645	308.15	11.07	.02
.8333	308.15	10.08	.02
.9136	308.15	9.19	.02
1	308.15	7.09	.02
0	318.15	12.57	.02
.0588	318.15	14.72	.02
.1118	318.15	15.83	.02
.1669	318.15	16.93	.02
.2533	318.15	17.69	.02
.3465	318.15	18.07	.02
.4166	318.15	18.21	.02
.5076	318.15	17.97	.02
.6002	318.15	17.51	.02
.6977	318.15	17.02	.02
.7645	318.15	16.31	.02
.8333	318.15	15.11	.02
.9136	318.15	13.95	.02
1	318.15	10.91	.02

System: NM(nitromethane) + pentane, 1-chloro-; phases: Liquid, Gas
Property: Azeotropic temperature, K (Liquid); method: By X=Y
Mole fraction of pentane, 1-chloro-	Azeotropic temperature, K	uncertainty
.4529	298.15	
.4646	308.15	
.4317	318.15	

System: NM(nitromethane) + pentane, 1-chloro-; phases: Liquid, Gas
Property: Azeotropic pressure, kPa (Liquid); method: By X=Y
Mole fraction of pentane, 1-chloro-	Azeotropic pressure, kPa	uncertainty
.4529	7.22	
.4646	11.7	
.4317	17.82	

System: nitroethane + pentane, 1-chloro-; phases: Gas, Liquid
Property: Mole fraction of pentane, 1-chloro- (Gas); method: Density calibration data
Mole fraction of pentane, 1-chloro-	Temperature, K	Mole fraction of pentane, 1-chloro-	uncertainty
0	298.15	0	.001
.0425	298.15	.1373	.001
.1185	298.15	.2993	.001
.2226	298.15	.4291	.001
.3192	298.15	.5028	.001
.3997	298.15	.5468	.001
.4998	298.15	.5914	.001
.6011	298.15	.6346	.001
.6829	298.15	.6743	.001
.7542	298.15	.7168	.001
.8312	298.15	.7764	.001
.9239	298.15	.878	.001
1	298.15	1	.001
0	308.15	0	.001
.0425	308.15	.1569	.001
.1185	308.15	.3213	.001
.2226	308.15	.4413	.001
.3192	308.15	.507	.001
.3997	308.15	.5471	.001
.4998	308.15	.5901	.001
.6011	308.15	.6348	.001
.6829	308.15	.6772	.001
.7542	308.15	.7226	.001
.8312	308.15	.7849	.001
.9239	308.15	.8862	.001
1	308.15	1	.001
0	318.15	0	.001
.0425	318.15	.1654	.001
.1185	318.15	.3315	.001
.2226	318.15	.4495	.001
.3192	318.15	.514	.001
.3997	318.15	.5532	.001
.4998	318.15	.5948	.001
.6011	318.15	.6366	.001
.6829	318.15	.6753	.001
.7542	318.15	.7165	.001
.8312	318.15	.774	.001
.9239	318.15	.8737	.001
1	318.15	1	.001

System: nitroethane + pentane, 1-chloro-; phases: Liquid, Gas
Property: Vapor or sublimation pressure, kPa (Liquid); method: Closed cell (Static) method
Mole fraction of pentane, 1-chloro-	Temperature, K	Vapor or sublimation pressure, kPa	uncertainty
0	298.15	2.95	.02
.0425	298.15	3.36	.02
.1185	298.15	3.75	.02
.2226	298.15	4.16	.02
.3192	298.15	4.4	.02
.3997	298.15	4.62	.02
.4998	298.15	4.77	.02
.6011	298.15	4.82	.02
.6829	298.15	4.77	.02
.7542	298.15	4.75	.02
.8312	298.15	4.61	.02
.9239	298.15	4.45	.02
1	298.15	4.24	.02
0	308.15	4.69	.02
.0425	308.15	5.56	.02
.1185	308.15	6.16	.02
.2226	308.15	6.76	.02
.3192	308.15	7.21	.02
.3997	308.15	7.68	.02
.4998	308.15	7.87	.02
.6011	308.15	7.92	.02
.6829	308.15	7.84	.02
.7542	308.15	7.69	.02
.8312	308.15	7.57	.02
.9239	308.15	7.33	.02
1	308.15	7.09	.02
0	318.15	7.24	.02
.0425	318.15	8.59	.02
.1185	318.15	9.66	.02
.2226	318.15	10.81	.02
.3192	318.15	11.36	.02
.3997	318.15	12.06	.02
.4998	318.15	12.35	.02
.6011	318.15	12.48	.02
.6829	318.15	12.4	.02
.7542	318.15	12.15	.02
.8312	318.15	11.95	.02
.9239	318.15	11.52	.02
1	318.15	10.91	.02

System: nitroethane + pentane, 1-chloro-; phases: Liquid, Gas
Property: Azeotropic temperature, K (Liquid); method: By X=Y
Mole fraction of pentane, 1-chloro-	Azeotropic temperature, K	uncertainty
.6434	298.15	
.6466	308.15	
.654	318.15	

System: nitroethane + pentane, 1-chloro-; phases: Liquid, Gas
Property: Azeotropic pressure, kPa (Liquid); method: By X=Y
Mole fraction of pentane, 1-chloro-	Azeotropic pressure, kPa	uncertainty
.6434	3.84	
.6466	6.86	
.654	12.32	
