Measured thermophysical data. An experimental investgation on the solubility of CO2 in aqueous solutions of phenol
Source: Fluid Phase Equilib., 2014, 10.1016/j.fluid.2014.08.024
Compound 1: carbon dioxide, CO2, purity 99.995%
Compound 2: phenol, C6H6O, purity 99.5%
Compound 3: water, H2O, purity 99.995%

System: phenol + carbon dioxide + water; phases: Liquid, Gas
Property: Molality, mol/kg of carbon dioxide (Liquid); method: synthetic gas solubility
Temperature, K	Solvent: Mole fraction of phenol	Pressure, kPa	Molality, mol/kg of carbon dioxide	uncertainty
313.8	.00892	439	.1	.001
313.8	.00892	807	.183	.001
313.8	.00892	1430	.323	.001
313.8	.00892	1680	.37	.001
313.8	.00892	2800	.587	.002
313.8	.00892	3560	.72	.003
313.8	.00892	4400	.855	.005
313.8	.00892	5400	.989	.005
313.8	.00892	6610	1.12	.01
313.8	.00892	7100	1.17	.01
313.8	.00892	7830	1.22	.01
354.4	.00892	1670	.207	.001
354.4	.00892	2870	.349	.001
354.4	.00892	4180	.491	.002
354.4	.00892	4960	.569	.002
354.4	.00892	5670	.635	.002
354.4	.00892	6400	.704	.002
354.4	.00892	7360	.78	.005
354.4	.00892	8540	.87	.005
395	.00892	737	.052	.001
395	.00892	1750	.151	.001
395	.00892	2420	.216	.001
395	.00892	3500	.315	.001
395	.00892	4630	.414	.002
395	.00892	5840	.515	.002
395	.00892	7090	.615	.002
395	.00892	8480	.716	.002
395	.00892	9210	.768	.003
354.4	.0352	843	.113	.001
354.4	.0352	1800	.261	.001
354.4	.0352	3040	.437	.002
354.4	.0352	4010	.57	.002
354.4	.0352	4990	.691	.002
354.4	.0352	6330	.84	.005
354.4	.0352	6430	.863	.005
354.4	.0352	8050	1.02	.01
354.4	.0352	9330	1.14	.01
395	.0352	1140	.102	.001
395	.0352	2070	.219	.001
395	.0352	3290	.357	.001
395	.0352	4610	.499	.002
395	.0352	5760	.621	.002
395	.0352	6530	.702	.003
395	.0352	7030	.743	.003
395	.0352	7640	.81	.005
395	.0352	8680	.91	.005
354.4	.068	1060	.173	.001
354.4	.068	1670	.282	.001
354.4	.068	2430	.42	.002
354.4	.068	3130	.548	.002
354.4	.068	4070	.702	.003
354.4	.068	5150	.873	.005
354.4	.068	6800	1.12	.01
354.4	.068	8460	1.38	.01
354.4	.068	9660	1.51	.01
395	.068	1190	.138	.001
395	.068	2130	.268	.001
395	.068	3090	.398	.001
395	.068	4060	.54	.002
395	.068	5150	.684	.002
395	.068	6390	.837	.004
395	.068	7810	1.02	.01
395	.068	8020	1.05	.01
395	.068	8430	1.06	.01
395	.068	8660	1.11	.01
354.4	.1544	804	.162	.001
354.4	.1544	1720	.38	.002
354.4	.1544	2670	.607	.002
354.4	.1544	3930	.907	.005
354.4	.1544	4940	1.14	.01
354.4	.1544	6120	1.41	.01
354.4	.1544	7190	1.66	.01
354.4	.1544	8290	1.89	.01
354.4	.1544	8770	2	.01
395	.1544	1160	.172	.001
395	.1544	2120	.356	.001
395	.1544	3160	.549	.002
395	.1544	4210	.744	.003
395	.1544	5400	.96	.005
395	.1544	5930	1.1	.01
395	.1544	6780	1.22	.01
395	.1544	7810	1.44	.01
395	.1544	8880	1.63	.01
354.4	.2607	777	.203	.001
354.4	.2607	1630	.445	.002
354.4	.2607	2380	.654	.002
354.4	.2607	3130	.873	.005
354.4	.2607	4000	1.12	.01
354.4	.2607	4870	1.38	.01
354.4	.2607	5730	1.66	.01
354.4	.2607	6300	1.83	.01
354.4	.2607	7020	2.04	.01
354.4	.2607	7790	2.25	.01
354.4	.2607	8640	2.5	.01
354.4	.2607	8810	2.55	.01
395	.2607	1010	.179	.001
395	.2607	1900	.378	.001
395	.2607	2760	.568	.002
395	.2607	3600	.755	.003
395	.2607	4630	.987	.005
395	.2607	5250	1.15	.01
395	.2607	5800	1.28	.01
395	.2607	6680	1.52	.01
395	.2607	7820	1.78	.01
395	.2607	8390	1.93	.01
395	.2607	8960	2.06	.01
395	.2607	9620	2.22	.01
354.4	.5058	815	.245	.001
354.4	.5058	1670	.526	.002
354.4	.5058	2590	.838	.005
354.4	.5058	3420	1.12	.01
354.4	.5058	4530	1.53	.01
354.4	.5058	5350	1.82	.01
354.4	.5058	6070	2.1	.01
354.4	.5058	6880	2.41	.01
354.4	.5058	7970	2.8	.01
395	.5058	315	.033	.001
395	.5058	1050	.216	.001
395	.5058	2020	.454	.002
395	.5058	2950	.709	.003
395	.5058	4090	1.02	.01
395	.5058	5270	1.35	.01
395	.5058	6390	1.68	.01
395	.5058	7190	1.91	.01
395	.5058	7380	1.95	.01
395	.5058	8570	2.33	.01
395	.5058	8980	2.45	.01
395	.5058	9530	2.62	.01
354.4	.8404	805	.252	.001
354.4	.8404	1640	.529	.002
354.4	.8404	2550	.849	.005
354.4	.8404	3700	1.28	.01
354.4	.8404	4390	1.54	.01
354.4	.8404	5230	1.87	.01
354.4	.8404	6190	2.26	.01
354.4	.8404	6910	2.58	.01
354.4	.8404	6970	2.58	.01
354.4	.8404	7950	3.03	.01
354.4	.8404	9420	3.7	.01
395	.8404	228	.039	.001
395	.8404	947	.223	.001
395	.8404	1970	.488	.002
395	.8404	2740	.696	.003
395	.8404	3590	.94	.005
395	.8404	4510	1.2	.01
395	.8404	5760	1.58	.01
395	.8404	6690	1.87	.01
395	.8404	7850	2.25	.01
395	.8404	9130	2.67	.01
395	.8404	9610	2.84	.01
395	.8404	9620	2.84	.01
