Measured thermophysical data. Isothermal vapor-liquid equilibrium measurements and assessments of 1,1,1,3,3,3-hexafluoropropane+N,N-dimethylformamide/N-methyl-2-pyrrolidone working pairs for absorption power cycles
Source: Fluid Phase Equilib., 2015, 10.1016/j.fluid.2015.08.003
Compound 1: 1,1,1,3,3,3-hexafluoropropane, C3H2F6, purity 99.90%
Compound 2: difluoromethane, CH2F2, purity 99.98%
Compound 3: dimethylformamide, C3H7NO, purity 99.90%
Compound 4: N-methyl-2-pyrrolidinone, C5H9NO, purity 99.50%

System: dimethylformamide + difluoromethane; phases: Liquid, Gas
Fixed: Temperature, K = 323.15
Property: Mole fraction of difluoromethane (Liquid); method: Chromatography
Pressure, kPa	Mole fraction of difluoromethane	uncertainty
285.6	.1191	.015
585.9	.2501	.015
822.3	.3538	.015
1166.9	.4853	.015

System: dimethylformamide + 1,1,1,3,3,3-hexafluoropropane; phases: Liquid, Gas
Property: Mole fraction of 1,1,1,3,3,3-hexafluoropropane (Liquid); method: Chromatography
Temperature, K	Pressure, kPa	Mole fraction of 1,1,1,3,3,3-hexafluoropropane	uncertainty
293.15	43.9	.367	.015
293.15	59.1	.4718	.015
293.15	71.6	.5561	.015
293.15	85.9	.6262	.015
293.15	102.8	.7164	.015
293.15	123.2	.7996	.015
293.15	152.5	.879	.015
303.15	38.5	.275	.015
303.15	59.7	.3693	.015
303.15	79.5	.4724	.015
303.15	101.3	.5652	.015
303.15	128.5	.6562	.015
303.15	157.6	.7541	.015
303.15	185.3	.8295	.015
313.15	37.1	.23	.015
313.15	73.2	.3568	.015
313.15	97.1	.4404	.015
313.15	124.9	.5274	.015
313.15	145.7	.5963	.015
313.15	183.6	.6841	.015
313.15	215.2	.7531	.015
313.15	251.6	.8206	.015
323.15	32.3	.18	.015
323.15	66.7	.2816	.015
323.15	98.1	.3666	.015
323.15	121.8	.4234	.015
323.15	152.3	.5012	.015
323.15	193.5	.5943	.015
323.15	233.3	.6697	.015
323.15	267.9	.7265	.015
323.15	303.6	.7793	.015
323.15	356.9	.8557	.015
333.15	56.9	.205	.015
333.15	99.7	.2998	.015
333.15	133.6	.3748	.015
333.15	185.5	.473	.015
333.15	245.1	.5819	.015
333.15	312.2	.6842	.015
333.15	371.6	.76	.015
333.15	469.1	.8586	.015
343.15	77.9	.1913	.015
343.15	135.1	.3003	.015
343.15	215.2	.4299	.015
343.15	283.3	.532	.015
343.15	395.6	.6689	.015
343.15	467.1	.7404	.015
343.15	525.6	.7925	.015
343.15	582.7	.8398	.015
353.15	74.6	.1208	.015
353.15	139.9	.2282	.015
353.15	235.9	.3619	.015
353.15	339.3	.494	.015
353.15	462.9	.6276	.015
353.15	592.7	.728	.015
353.15	715.9	.8279	.015

System: 1,1,1,3,3,3-hexafluoropropane + N-methyl-2-pyrrolidinone; phases: Liquid, Gas
Property: Mole fraction of 1,1,1,3,3,3-hexafluoropropane (Liquid); method: Chromatography
Temperature, K	Pressure, kPa	Mole fraction of 1,1,1,3,3,3-hexafluoropropane	uncertainty
293.15	37.1	.2383	.015
293.15	64.2	.3862	.015
293.15	83.3	.4787	.015
293.15	109.3	.5839	.015
293.15	130.1	.6701	.015
293.15	152.1	.7536	.015
293.15	178.5	.8293	.015
303.15	41.9	.2203	.015
303.15	85.4	.3804	.015
303.15	121.6	.5116	.015
303.15	152.2	.6021	.015
303.15	187.5	.6884	.015
303.15	220.4	.7679	.015
303.15	248.5	.8278	.015
313.15	52.1	.2184	.015
313.15	73.8	.2815	.015
313.15	111.3	.3799	.015
313.15	131.6	.4317	.015
313.15	174.4	.5339	.015
313.15	226.1	.6408	.015
313.15	272.1	.7256	.015
313.15	310.5	.7858	.015
323.15	72.8	.2289	.015
323.15	126.4	.3445	.015
323.15	169.1	.4211	.015
323.15	224	.516	.015
323.15	271.6	.5904	.015
323.15	326.6	.676	.015
323.15	361.2	.7251	.015
323.15	413.5	.7968	.015
333.15	60.2	.1538	.015
333.15	91.1	.2089	.015
333.15	135.8	.2828	.015
333.15	193.1	.3728	.015
333.15	285.3	.5069	.015
333.15	341.2	.5813	.015
333.15	450	.7175	.015
333.15	545.2	.8251	.015
343.15	77.4	.1315	.015
343.15	121.7	.1946	.015
343.15	207.1	.3086	.015
343.15	286.3	.4104	.015
343.15	375.5	.5176	.015
343.15	454.4	.6036	.015
343.15	549.5	.6997	.015
343.15	701	.8308	.015
353.15	92.1	.109	.015
353.15	180.5	.2093	.015
353.15	261.6	.2974	.015
353.15	392.3	.4318	.015
353.15	492.5	.5311	.015
353.15	592.4	.6172	.015
353.15	715.3	.7022	.015
353.15	883.9	.8304	.015
