Measured thermophysical data. Isobaric vapor-liquid equilibria for the n-heptane + ethylene glycol monopropyl ether and n-octane + ethylene glycol monopropyl ether systems
Source: Fluid Phase Equilib., 2010, 10.1016/j.fluid.2010.08.002
Compound 1: heptane, C7H16
Compound 2: octane, C8H18
Compound 3: 2-propoxyethanol, C5H12O2

System: heptane + 2-propoxyethanol; phases: Liquid, Gas
Property: Boiling temperature at pressure P, K (Liquid); method: Platinum resistance thermometry
Mole fraction of heptane	Pressure, kPa	Boiling temperature at pressure P, K	uncertainty
0	60	406.15	.01
.009	60	401.8	.01
.019	60	397.63	.01
.034	60	392.24	.01
.058	60	386.09	.01
.115	60	376.27	.01
.233	60	366.3	.01
.486	60	359.59	.01
.72	60	355.92	.01
.877	60	354.76	.01
.93	60	354.61	.01
.961	60	354.56	.01
.982	60	354.56	.01
1	60	354.7	.01
0	80	415.3	.01
.013	80	410.73	.01
.037	80	403.26	.01
.06	80	396.96	.01
.103	80	388.7	.01
.168	80	381.19	.01
.309	80	372.39	.01
.473	80	368.18	.01
.651	80	365.39	.01
.917	80	363.79	.01
.971	80	363.56	.01
1	80	363.75	.01
0	100	422.75	.01
.018	100	418.39	.01
.037	100	413.01	.01
.058	100	407.8	.01
.107	100	398.34	.01
.182	100	388.39	.01
.33	100	379.32	.01
.528	100	374.64	.01
.73	100	372.35	.01
.924	100	371.07	.01
.973	100	370.83	.01
1	100	371.15	.01

System: heptane + 2-propoxyethanol; phases: Gas, Liquid
Property: Mole fraction of heptane (Gas); method: Chromatography
Mole fraction of heptane	Pressure, kPa	Mole fraction of heptane	uncertainty
0	60	0	.002
.009	60	.137	.002
.019	60	.257	.002
.034	60	.386	.002
.058	60	.521	.002
.115	60	.688	.002
.233	60	.805	.002
.486	60	.88	.002
.72	60	.919	.002
.877	60	.938	.002
.93	60	.961	.002
.961	60	.97	.002
.982	60	.982	.002
1	60	1	.002
0	80	0	.002
.013	80	.142	.002
.037	80	.344	.002
.06	80	.487	.002
.103	80	.619	.002
.168	80	.731	.002
.309	80	.837	.002
.473	80	.875	.002
.651	80	.903	.002
.917	80	.957	.002
.971	80	.98	.002
1	80	1	.002
0	100	0	.002
.018	100	.136	.002
.037	100	.283	.002
.058	100	.41	.002
.107	100	.582	.002
.182	100	.727	.002
.33	100	.828	.002
.528	100	.88	.002
.73	100	.906	.002
.924	100	.954	.002
.973	100	.98	.002
1	100	1	.002

System: octane + 2-propoxyethanol; phases: Liquid, Gas
Property: Boiling temperature at pressure P, K (Liquid); method: Platinum resistance thermometry
Mole fraction of octane	Pressure, kPa	Boiling temperature at pressure P, K	uncertainty
0	60	406.15	.01
.01	60	404.19	.01
.019	60	402.42	.01
.031	60	400.25	.01
.072	60	394.4	.01
.147	60	387.06	.01
.261	60	382.73	.01
.589	60	378.34	.01
.747	60	377.72	.01
.835	60	377.4	.01
.881	60	377.87	.01
.961	60	379.25	.01
1	60	381	.01
0	80	415.3	.01
.01	80	413.19	.01
.019	80	411.43	.01
.034	80	408.58	.01
.084	80	401.95	.01
.159	80	395.65	.01
.3	80	390.75	.01
.601	80	387.38	.01
.78	80	386.93	.01
.833	80	386.73	.01
.878	80	387.19	.01
.962	80	388.72	.01
1	80	390.5	.01
0	100	422.75	.01
.01	100	420.66	.01
.019	100	418.77	.01
.034	100	416.1	.01
.088	100	408.55	.01
.172	100	402.22	.01
.411	100	396.31	.01
.59	100	394.8	.01
.771	100	394.23	.01
.822	100	394.13	.01
.84	100	394.33	.01
.91	100	395.06	.01
.964	100	396.37	.01
1	100	398.4	.01

System: octane + 2-propoxyethanol; phases: Gas, Liquid
Property: Mole fraction of octane (Gas); method: Chromatography
Mole fraction of octane	Pressure, kPa	Mole fraction of octane	uncertainty
0	60	0	.002
.01	60	.074	.002
.019	60	.13	.002
.031	60	.202	.002
.072	60	.371	.002
.147	60	.543	.002
.261	60	.645	.002
.589	60	.753	.002
.747	60	.803	.002
.835	60	.838	.002
.881	60	.86	.002
.961	60	.93	.002
1	60	1	.002
0	80	0	.002
.01	80	.072	.002
.019	80	.125	.002
.034	80	.214	.002
.084	80	.393	.002
.159	80	.539	.002
.3	80	.644	.002
.601	80	.748	.002
.78	80	.811	.002
.833	80	.83	.002
.878	80	.855	.002
.962	80	.929	.002
1	80	1	.002
0	100	0	.002
.01	100	.066	.002
.019	100	.121	.002
.034	100	.205	.002
.088	100	.4	.002
.172	100	.532	.002
.411	100	.677	.002
.59	100	.737	.002
.771	100	.796	.002
.822	100	.825	.002
.84	100	.832	.002
.91	100	.87	.002
.964	100	.931	.002
1	100	1	.002
