Measured thermophysical data. Experimental measurement and thermodynamic modeling of propylene and propane solubility in N-methyl pyrrolidone (NMP)
Source: Fluid Phase Equilib., 2015, 10.1016/j.fluid.2014.12.031
Compound 1: N-methylpyrrolidone, C5H9NO, purity 99%
Compound 2: propylene, C3H6, purity 99.74%
Compound 3: propane, C3H8, purity 99.79%

System: propylene + N-methylpyrrolidone; phases: Liquid, Gas
Property: Mole fraction of propylene (Liquid); method: Volumetric method
Temperature, K	Pressure, kPa	Mole fraction of propylene	uncertainty
276.1	51	.0061	
276.1	84	.0181	
276.1	109	.0261	
276.1	150	.0325	
276.1	180	.0455	
276.1	240	.0656	
276.1	271	.08	
293.1	85	.0115	
293.1	137	.0236	
293.1	200	.037	
293.1	286	.0557	
293.1	402	.0705	
293.1	517	.0892	
293.1	566	.1138	
328.1	69	.0057	
328.1	115	.0119	
328.1	193	.0223	
328.1	250	.0314	
328.1	379	.0441	
328.1	553	.0603	
328.1	650	.0858	

System: propane + N-methylpyrrolidone; phases: Liquid, Gas
Property: Mole fraction of propane (Liquid); method: Volumetric
Temperature, K	Pressure, kPa	Mole fraction of propane	uncertainty
276.1	72	.0064	
276.1	108	.0141	
276.1	165	.02	
276.1	187	.025	
276.1	250	.0292	
276.1	310	.0451	
276.1	341	.0522	
293.1	94	.0071	
293.1	175	.0182	
293.1	258	.0249	
293.1	350	.0289	
293.1	383	.0446	
293.1	446	.0481	
293.1	536	.0578	
328.1	114	.0063	
328.1	178	.0114	
328.1	270	.0183	
328.1	390	.0222	
328.1	480	.0326	
328.1	580	.0415	
328.1	815	.0515	
