Measured thermophysical data. Study on ion solvent interactions of alkali metal salts in pure methanol and its  binary mixtures with ethane-1,2-diol by a conductometric technique
Source: Fluid Phase Equilib., 2009, 10.1016/j.fluid.2009.03.002
Compound 1: 1,2-ethanediol, C2H6O2, purity 99%
Compound 2: methanol, CH4O, purity 99%
Compound 3: sodium thiocyanate, CNNaS, purity 99%
Compound 4: sodium iodide, INa, purity 99%
Compound 5: sodium ethanoate, C2H3NaO2, purity 99%

System: methanol + 1,2-ethanediol; phases: Liquid
Fixed: Pressure, kPa = 101
Property: Mass density, kg/m3 (Liquid); method: Pycnometric method
Mass fraction of 1,2-ethanediol	Temperature, K	Mass density, kg/m3	uncertainty
0	293.15	791	
0	298.15	785.9	
0	303.15	781.4	
.25	293.15	864.7	
.25	298.15	860.9	
.25	303.15	858.6	
.5	293.15	938.3	
.5	298.15	933.8	
.5	303.15	932.1	
.75	293.15	1023.4	
.75	298.15	1019.6	
.75	303.15	1017.3	

System: methanol + 1,2-ethanediol; phases: Liquid
Fixed: Pressure, kPa = 101
Property: Viscosity, Pa*s (Liquid); method: Capillary tube (Ostwald; Ubbelohde) method
Mass fraction of 1,2-ethanediol	Temperature, K	Viscosity, Pa*s	uncertainty
0	293.15	.0005814	.000003
0	298.15	.0005436	.000003
0	303.15	.0005112	.000003
.25	293.15	.0011268	.000003
.25	298.15	.0010295	.000003
.25	303.15	.0009454	.000003
.5	293.15	.0022692	.000003
.5	298.15	.0020452	.000003
.5	303.15	.0018101	.000003
.75	293.15	.0057998	.000003
.75	298.15	.004904	.000003
.75	303.15	.0042319	.000003

System: methanol + 1,2-ethanediol; phases: Liquid
Fixed: Pressure, kPa = 101
Property: Relative permittivity at zero frequency (Liquid); method: Parallel plate capacitor
Mass fraction of 1,2-ethanediol	Temperature, K	Relative permittivity at zero frequency	uncertainty
0	293.15	33.1	
0	298.15	32.7	
0	303.15	31.9	
.25	293.15	35.2	
.25	298.15	34.7	
.25	303.15	33.7	
.5	293.15	37.3	
.5	298.15	36.7	
.5	303.15	35.6	
.75	293.15	39.3	
.75	298.15	38.7	
.75	303.15	37.4	

System: methanol + sodium thiocyanate; phases: Liquid
Fixed: Pressure, kPa = 101
Property: Molar conductivity, S*m2/mol (Liquid); method: Direct current cell with electrodes
Temperature, K	Amount concentration (molarity), mol/dm3 of sodium thiocyanate	Molar conductivity, S*m2/mol	uncertainty
293.15	.00069857	.00956	
293.15	.00100229	.009407	
293.15	.00153685	.009271	
293.15	.00177329	.009192	
293.15	.00238477	.008993	
293.15	.00256142	.00895	
293.15	.0031641	.008836	
293.15	.00341522	.008784	
293.15	.00384212	.00872	
293.15	.00419141	.008664	
293.15	.00434327	.00868	
293.15	.00483823	.008578	
293.15	.00503451	.008541	
293.15	.00566208	.008477	
293.15	.00633614	.008396	
298.15	.00069857	.01035	
298.15	.00100229	.010245	
298.15	.00153685	.0101	
298.15	.00177329	.010014	
298.15	.0021955	.009936	
298.15	.00238477	.009871	
298.15	.00256142	.009821	
298.15	.0031641	.009707	
298.15	.00341522	.009675	
298.15	.00363991	.009616	
298.15	.00419141	.009507	
298.15	.00472877	.009414	
298.15	.00548875	.009293	
298.15	.00585467	.00925	
298.15	.00601376	.009229	
303.15	.00069857	.01085	
303.15	.00128071	.0106	
303.15	.00153685	.010507	
303.15	.00177329	.01045	
303.15	.0021955	.010314	
303.15	.00238477	.010271	
303.15	.00256142	.010214	
303.15	.0031641	.01008	
303.15	.00341522	.010014	
303.15	.00363991	.009979	
303.15	.00419141	.009864	
303.15	.00483823	.009735	
303.15	.00503451	.009713	
303.15	.00560742	.0096	
303.15	.00626124	.009493	

System: methanol + sodium iodide; phases: Liquid
Fixed: Pressure, kPa = 101
Property: Molar conductivity, S*m2/mol (Liquid); method: Direct current cell with electrodes
Temperature, K	Amount concentration (molarity), mol/dm3 of sodium iodide	Molar conductivity, S*m2/mol	uncertainty
293.15	.00070053	.008344	
293.15	.00100511	.008236	
293.15	.00154116	.00804	
293.15	.00177827	.007969	
293.15	.00239146	.00784	
293.15	.00256861	.007786	
293.15	.00303562	.007688	
293.15	.00354051	.0076	
293.15	.00375412	.007556	
293.15	.00412172	.0075	
293.15	.00468393	.007431	
293.15	.00509367	.007356	
293.15	.00565093	.007288	
293.15	.00617991	.007194	
293.15	.00652936	.00715	
298.15	.00070053	.008814	
298.15	.00100511	.008686	
298.15	.00154116	.008464	
298.15	.00177827	.008407	
298.15	.0019978	.008329	
298.15	.00239146	.00825	
298.15	.00256861	.008171	
298.15	.00317298	.008019	
298.15	.00342481	.007956	
298.15	.00365012	.007907	
298.15	.00420317	.007791	
298.15	.00474204	.007697	
298.15	.00495374	.007663	
298.15	.00550415	.007571	
298.15	.00603064	.007494	
303.15	.00070053	.0098	
303.15	.00100511	.00954	
303.15	.00154116	.009246	
303.15	.00177827	.009148	
303.15	.00220166	.009014	
303.15	.00239146	.00896	
303.15	.00256861	.008907	
303.15	.00317298	.00852	
303.15	.00342481	.00846	
303.15	.00365012	.0084	
303.15	.00420317	.00825	
303.15	.00485181	.00804	
303.15	.00504864	.008	
303.15	.00562316	.00782	
303.15	.00625189	.0076	

System: methanol + sodium ethanoate; phases: Liquid
Fixed: Pressure, kPa = 101
Property: Molar conductivity, S*m2/mol (Liquid); method: Direct current cell with electrodes
Temperature, K	Amount concentration (molarity), mol/dm3 of sodium ethanoate	Molar conductivity, S*m2/mol	uncertainty
293.15	.00070375	.007613	
293.15	.00100972	.007497	
293.15	.00154824	.007306	
293.15	.00178643	.007275	
293.15	.00240245	.007159	
293.15	.0025804	.007131	
293.15	.00318756	.006994	
293.15	.00344054	.006947	
293.15	.00366689	.006913	
293.15	.00422248	.006825	
293.15	.00476382	.006759	
293.15	.00497649	.006732	
293.15	.00559088	.006636	
293.15	.00575629	.006636	
293.15	.00625252	.006557	
293.15	.00649263	.00653	
298.15	.00070375	.00835	
298.15	.00100972	.00824	
298.15	.0012902	.008107	
298.15	.00178643	.007949	
298.15	.00200698	.007893	
298.15	.00240245	.007788	
298.15	.0025804	.007732	
298.15	.00318756	.007579	
298.15	.00344054	.007529	
298.15	.00366689	.007475	
298.15	.00422248	.007371	
298.15	.00476382	.007263	
298.15	.00497649	.007194	
298.15	.00552944	.007125	
298.15	.00589807	.007044	
298.15	.00600231	.00701	
303.15	.00070375	.00893	
303.15	.00100972	.00857	
303.15	.00154824	.00804	
303.15	.00178643	.00786	
303.15	.00200698	.0078	
303.15	.00240245	.00754	
303.15	.0025804	.0074	
303.15	.00318756	.00714	
303.15	.00344054	.00696	
303.15	.00366689	.00692	
303.15	.00422248	.0068	
303.15	.0048741	.00643	
303.15	.00507183	.00634	
303.15	.00564899	.0062	
303.15	.00598185	.00612	
303.15	.00628061	.00612	

System: methanol + 1,2-ethanediol + sodium thiocyanate; phases: Liquid
Fixed: Pressure, kPa = 101
Property: Molar conductivity, S*m2/mol (Liquid); method: Direct current cell with electrodes
Solvent: Mass fraction of 1,2-ethanediol	Temperature, K	Amount concentration (molarity), mol/dm3 of sodium thiocyanate	Molar conductivity, S*m2/mol	uncertainty
.25	293.15	.00086155	.00506	
.25	293.15	.00123613	.00493	
.25	293.15	.002187	.00463	
.25	293.15	.002457	.00446	
.25	293.15	.00270771	.00446	
.25	293.15	.00294114	.00433	
.25	293.15	.00336281	.0042	
.25	293.15	.00373336	.00416	
.25	293.15	.004212	.00407	
.25	293.15	.0047385	.0039	
.25	293.15	.00496414	.00386	
.25	293.15	.0056862	.00369	
.25	293.15	.005967	.00364	
.25	293.15	.00651544	.00356	
.25	293.15	.00722057	.0034	
.25	298.15	.00083564	.00749	
.25	298.15	.00119896	.0073	
.25	298.15	.00212123	.007	
.25	298.15	.00238311	.00688	
.25	298.15	.00262629	.00683	
.25	298.15	.003064	.006712	
.25	298.15	.00326168	.0066	
.25	298.15	.00362109	.0065	
.25	298.15	.00422335	.00636	
.25	298.15	.0047081	.00632	
.25	298.15	.00491665	.00618	
.25	298.15	.00565662	.00604	
.25	298.15	.00617823	.005867	
.25	298.15	.0063195	.005811	
.25	298.15	.00656571	.00575	
.25	303.15	.00082592	.00821	
.25	303.15	.00118501	.00786	
.25	303.15	.00209656	.007263	
.25	303.15	.0023554	.00707	
.25	303.15	.00259574	.00686	
.25	303.15	.00302837	.00664	
.25	303.15	.00340691	.0065	
.25	303.15	.00374092	.0064	
.25	303.15	.00430347	.00614	
.25	303.15	.00475886	.006	
.25	303.15	.00495551	.0058	
.25	303.15	.00572025	.005612	
.25	303.15	.00615442	.005476	
.25	303.15	.00656146	.00538	
.25	303.15	.00711008	.00514	
.5	293.15	.00100164	.003513	
.5	293.15	.00143713	.003491	
.5	293.15	.0022036	.003466	
.5	293.15	.00254262	.003447	
.5	293.15	.00285652	.003439	
.5	293.15	.003148	.003431	
.5	293.15	.00367267	.003415	
.5	293.15	.00413175	.003407	
.5	293.15	.00453682	.003394	
.5	293.15	.00489689	.00339	
.5	293.15	.00521905	.00338	
.5	293.15	.005509	.003371	
.5	293.15	.00622757	.003363	
.5	293.15	.00693726	.003345	
.5	293.15	.00721869	.003339	
.5	298.15	.00102782	.003807	
.5	298.15	.00188433	.003747	
.5	298.15	.0022612	.003719	
.5	298.15	.00260908	.003696	
.5	298.15	.00350876	.003653	
.5	298.15	.00376867	.003635	
.5	298.15	.00423975	.003609	
.5	298.15	.00465541	.003593	
.5	298.15	.00502489	.003573	
.5	298.15	.005653	.003547	
.5	298.15	.00639035	.003527	
.5	298.15	.0067836	.003513	
.5	298.15	.00711859	.003496	
.5	298.15	.007356	.003385	
.5	298.15	.007564	.003361	
.5	303.15	.00100164	.004393	
.5	303.15	.00143713	.004346	
.5	303.15	.00183633	.0043	
.5	303.15	.0022036	.004273	
.5	303.15	.00254262	.004256	
.5	303.15	.003148	.004193	
.5	303.15	.00341938	.00418	
.5	303.15	.00367267	.004174	
.5	303.15	.00413175	.004144	
.5	303.15	.00453682	.004114	
.5	303.15	.00489689	.004097	
.5	303.15	.005509	.004071	
.5	303.15	.00622757	.00403	
.5	303.15	.0066108	.004007	
.5	303.15	.00767921	.003973	
.75	293.15	.00116059	.001691	
.75	293.15	.00166519	.001673	
.75	293.15	.00212774	.001663	
.75	293.15	.00255329	.001643	
.75	293.15	.00330982	.001625	
.75	293.15	.00364755	.001616	
.75	293.15	.00425548	.001604	
.75	293.15	.00478742	.001588	
.75	293.15	.00525677	.001586	
.75	293.15	.00567397	.001573	
.75	293.15	.00638322	.001559	
.75	293.15	.00696351	.00155	
.75	293.15	.00785627	.001538	
.75	293.15	.008207	.001529	
.75	293.15	.00864823	.001519	
.75	298.15	.00116059	.001886	
.75	298.15	.00166519	.001873	
.75	298.15	.00212774	.001861	
.75	298.15	.00255329	.001854	
.75	298.15	.00330982	.001843	
.75	298.15	.00364755	.001838	
.75	298.15	.00425548	.001829	
.75	298.15	.00478742	.001823	
.75	298.15	.00525677	.001817	
.75	298.15	.00567397	.001812	
.75	298.15	.00638322	.001804	
.75	298.15	.00696351	.001798	
.75	298.15	.00785627	.001791	
.75	298.15	.00836422	.001786	
.75	298.15	.00877693	.001781	
.75	303.15	.00116059	.002071	
.75	303.15	.00166519	.002065	
.75	303.15	.00212774	.00206	
.75	303.15	.00255329	.002056	
.75	303.15	.00330982	.00205	
.75	303.15	.00364755	.002048	
.75	303.15	.00425548	.002044	
.75	303.15	.00478742	.002041	
.75	303.15	.00525677	.002037	
.75	303.15	.00567397	.002035	
.75	303.15	.00638322	.002031	
.75	303.15	.00696351	.002028	
.75	303.15	.00785627	.002023	
.75	303.15	.00836422	.002022	
.75	303.15	.00911889	.002017	

System: methanol + 1,2-ethanediol + sodium iodide; phases: Liquid
Fixed: Pressure, kPa = 101
Property: Molar conductivity, S*m2/mol (Liquid); method: Direct current cell with electrodes
Solvent: Mass fraction of 1,2-ethanediol	Temperature, K	Amount concentration (molarity), mol/dm3 of sodium iodide	Molar conductivity, S*m2/mol	uncertainty
.25	293.15	.00086155	.00506	
.25	293.15	.00123613	.00493	
.25	293.15	.002187	.00463	
.25	293.15	.002457	.00446	
.25	293.15	.00270771	.00446	
.25	293.15	.00294114	.00433	
.25	293.15	.00336281	.0042	
.25	293.15	.00373336	.00416	
.25	293.15	.004212	.00407	
.25	293.15	.0047385	.0039	
.25	293.15	.00496414	.00386	
.25	293.15	.0056862	.00369	
.25	293.15	.005967	.00364	
.25	293.15	.00651544	.00356	
.25	293.15	.00722057	.0034	
.25	298.15	.00082955	.00615	
.25	298.15	.00119022	.0059	
.25	298.15	.00210577	.005637	
.25	298.15	.00236574	.00555	
.25	298.15	.00260714	.00545	
.25	298.15	.00304167	.0054	
.25	298.15	.00342188	.00525	
.25	298.15	.00375735	.0053	
.25	298.15	.00432237	.0052	
.25	298.15	.00477976	.0052	
.25	298.15	.00497727	.005043	
.25	298.15	.0056816	.005069	
.25	298.15	.00622817	.0049	
.25	298.15	.00655458	.0048	
.25	298.15	.00720395	.00475	
.25	303.15	.00086155	.00674	
.25	303.15	.00123613	.00669	
.25	303.15	.002187	.00646	
.25	303.15	.002457	.0064	
.25	303.15	.00270771	.00629	
.25	303.15	.00294114	.00615	
.25	303.15	.00336281	.00611	
.25	303.15	.00390229	.005973	
.25	303.15	.004212	.005928	
.25	303.15	.0047385	.005867	
.25	303.15	.00516927	.005821	
.25	303.15	.0056862	.005764	
.25	303.15	.00609236	.00568	
.25	303.15	.0068445	.00562	
.25	303.15	.00716554	.00556	
.5	293.15	.00100556	.002814	
.5	293.15	.00144276	.002799	
.5	293.15	.00184353	.002784	
.5	293.15	.00221223	.002776	
.5	293.15	.00255258	.002767	
.5	293.15	.00316033	.00275	
.5	293.15	.00343278	.002748	
.5	293.15	.00368706	.00274	
.5	293.15	.00414794	.002729	
.5	293.15	.0045546	.002724	
.5	293.15	.00491608	.002715	
.5	293.15	.00553059	.002708	
.5	293.15	.00603337	.002702	
.5	293.15	.00645235	.002693	
.5	293.15	.00724697	.002679	
.5	298.15	.00095582	.00339	
.5	298.15	.00137139	.00335	
.5	298.15	.0021028	.00331	
.5	298.15	.00242631	.00328	
.5	298.15	.00272585	.003267	
.5	298.15	.00350467	.003233	
.5	298.15	.00394275	.003213	
.5	298.15	.00432929	.003196	
.5	298.15	.00467289	.003176	
.5	298.15	.00498032	.003164	
.5	298.15	.00562377	.003136	
.5	298.15	.00622257	.003113	
.5	298.15	.006759	.003093	
.5	298.15	.00722838	.00308	
.5	298.15	.007356	.00301	
.5	303.15	.00100556	.003683	
.5	303.15	.00144276	.003606	
.5	303.15	.00184353	.00356	
.5	303.15	.00221223	.003514	
.5	303.15	.00255258	.003491	
.5	303.15	.00286771	.00346	
.5	303.15	.00343278	.003394	
.5	303.15	.00392493	.003349	
.5	303.15	.00414794	.003327	
.5	303.15	.0045546	.003293	
.5	303.15	.00491608	.003273	
.5	303.15	.00553059	.003229	
.5	303.15	.00603337	.00319	
.5	303.15	.00680687	.003143	
.5	303.15	.00711075	.003134	
.75	293.15	.00116233	.00144	
.75	293.15	.00166769	.00143	
.75	293.15	.00213093	.001422	
.75	293.15	.00255712	.001412	
.75	293.15	.00295052	.001404	
.75	293.15	.00331479	.001397	
.75	293.15	.00365303	.001392	
.75	293.15	.00426187	.001387	
.75	293.15	.0047946	.001378	
.75	293.15	.00526466	.001372	
.75	293.15	.00568249	.001366	
.75	293.15	.00605634	.001362	
.75	293.15	.00697396	.001356	
.75	293.15	.00786806	.001347	
.75	293.15	.00837677	.001341	
.75	298.15	.00116233	.001601	
.75	298.15	.00166769	.001593	
.75	298.15	.00213093	.00159	
.75	298.15	.00255712	.001585	
.75	298.15	.00331479	.00158	
.75	298.15	.00365303	.001578	
.75	298.15	.00426187	.001575	
.75	298.15	.0047946	.001573	
.75	298.15	.00526466	.001569	
.75	298.15	.00568249	.001568	
.75	298.15	.0063928	.001566	
.75	298.15	.00745827	.001561	
.75	298.15	.00805019	.001559	
.75	298.15	.00852373	.001557	
.75	298.15	.00891118	.001556	
.75	303.15	.00116233	.001868	
.75	303.15	.00166769	.001859	
.75	303.15	.00213093	.001853	
.75	303.15	.00255712	.001845	
.75	303.15	.00331479	.001835	
.75	303.15	.00365303	.001834	
.75	303.15	.00426187	.001823	
.75	303.15	.0047946	.001818	
.75	303.15	.00526466	.001816	
.75	303.15	.00605634	.00181	
.75	303.15	.0063928	.001807	
.75	303.15	.00697396	.001802	
.75	303.15	.00745827	.001799	
.75	303.15	.00821931	.001793	
.75	303.15	.00913257	.001789	

System: methanol + 1,2-ethanediol + sodium ethanoate; phases: Liquid
Fixed: Pressure, kPa = 101
Property: Molar conductivity, S*m2/mol (Liquid); method: Direct current cell with electrodes
Solvent: Mass fraction of 1,2-ethanediol	Temperature, K	Amount concentration (molarity), mol/dm3 of sodium ethanoate	Molar conductivity, S*m2/mol	uncertainty
.25	293.15	.00081791	.00449	
.25	293.15	.00117352	.00435	
.25	293.15	.00207623	.0042	
.25	293.15	.00233256	.00417	
.25	293.15	.00257057	.00417	
.25	293.15	.002999	.00409	
.25	293.15	.00337388	.004	
.25	293.15	.00370465	.004	
.25	293.15	.00426174	.00392	
.25	293.15	.00471271	.00384	
.25	293.15	.00508526	.00382	
.25	293.15	.00589459	.00371	
.25	293.15	.00635082	.00368	
.25	293.15	.00669008	.00363	
.25	293.15	.00716088	.00358	
.25	298.15	.00083118	.00536	
.25	298.15	.00119257	.00523	
.25	298.15	.00152383	.004971	
.25	298.15	.00210992	.004894	
.25	298.15	.00261229	.00484	
.25	298.15	.00304767	.004774	
.25	298.15	.00376476	.00474	
.25	298.15	.0045715	.00468	
.25	298.15	.00498709	.00464	
.25	298.15	.00525236	.004611	
.25	298.15	.00587764	.004569	
.25	298.15	.00685725	.00448	
.25	298.15	.0073144	.004466	
.25	298.15	.00783686	.0044	
.25	298.15	.00826	.004352	
.25	303.15	.00081791	.00595	
.25	303.15	.00117352	.0059	
.25	303.15	.00207623	.005683	
.25	303.15	.00233256	.005616	
.25	303.15	.00257057	.005524	
.25	303.15	.002999	.005502	
.25	303.15	.00337388	.005394	
.25	303.15	.00370465	.0054	
.25	303.15	.00426174	.005256	
.25	303.15	.00471271	.00525	
.25	303.15	.00490745	.0051	
.25	303.15	.00566478	.00503	
.25	303.15	.00609474	.00495	
.25	303.15	.00642643	.004979	
.25	303.15	.00716088	.00486	
.5	293.15	.00098449	.002515	
.5	293.15	.00141253	.002483	
.5	293.15	.0018049	.002459	
.5	293.15	.00216588	.002439	
.5	293.15	.00249909	.002428	
.5	293.15	.00280762	.002408	
.5	293.15	.00309411	.0024	
.5	293.15	.00360979	.00238	
.5	293.15	.00445916	.00235	
.5	293.15	.00541469	.00232	
.5	293.15	.00590693	.00231	
.5	293.15	.00631714	.002295	
.5	293.15	.00666423	.002289	
.5	293.15	.00721959	.002272	
.5	293.15	.007356	.002212	
.5	298.15	.00098082	.002799	
.5	298.15	.00140726	.002773	
.5	298.15	.00248977	.002735	
.5	298.15	.00279715	.002721	
.5	298.15	.00334831	.0027	
.5	298.15	.00359633	.002696	
.5	298.15	.00444253	.002668	
.5	298.15	.00479511	.002661	
.5	298.15	.00511058	.002655	
.5	298.15	.00577086	.002634	
.5	298.15	.00609813	.00263	
.5	298.15	.00663938	.002616	
.5	298.15	.00730868	.0026	
.5	298.15	.007463	.002586	
.5	298.15	.007562	.002498	
.5	303.15	.00098449	.003123	
.5	303.15	.00141253	.003067	
.5	303.15	.0018049	.003029	
.5	303.15	.00216588	.003	
.5	303.15	.00249909	.002964	
.5	303.15	.00309411	.00293	
.5	303.15	.00336084	.002909	
.5	303.15	.00406102	.002863	
.5	303.15	.00445916	.00284	
.5	303.15	.00481306	.00282	
.5	303.15	.00512971	.002807	
.5	303.15	.00567253	.002785	
.5	303.15	.00590693	.002752	
.5	303.15	.00631714	.002731	
.5	303.15	.00733603	.002698	
.75	293.15	.00115835	.001179	
.75	293.15	.00166198	.001169	
.75	293.15	.00212365	.001157	
.75	293.15	.00254837	.00115	
.75	293.15	.00294043	.001143	
.75	293.15	.00364054	.001134	
.75	293.15	.00424729	.001123	
.75	293.15	.0047782	.001115	
.75	293.15	.00524665	.00111	
.75	293.15	.00566306	.001105	
.75	293.15	.00603562	.0011	
.75	293.15	.00667431	.001094	
.75	293.15	.00764512	.001083	
.75	293.15	.0081912	.001079	
.75	293.15	.00863159	.001071	
.75	298.15	.00115835	.001339	
.75	298.15	.00166198	.001322	
.75	298.15	.00212365	.001309	
.75	298.15	.00254837	.001302	
.75	298.15	.00294043	.001294	
.75	298.15	.00330345	.001287	
.75	298.15	.00364054	.00128	
.75	298.15	.00424729	.001271	
.75	298.15	.0047782	.001264	
.75	298.15	.00524665	.001258	
.75	298.15	.00603562	.001249	
.75	298.15	.00667431	.001239	
.75	298.15	.00764512	.001228	
.75	298.15	.00849458	.001217	
.75	298.15	.0088807	.001214	
.75	303.15	.00115835	.001623	
.75	303.15	.00166198	.001592	
.75	303.15	.00212365	.001569	
.75	303.15	.00254837	.00155	
.75	303.15	.00294043	.001534	
.75	303.15	.00330345	.001526	
.75	303.15	.00364054	.001508	
.75	303.15	.00424729	.001491	
.75	303.15	.0047782	.001478	
.75	303.15	.00524665	.001466	
.75	303.15	.00603562	.001446	
.75	303.15	.00667431	.001425	
.75	303.15	.00720193	.001416	
.75	303.15	.00784115	.001403	
.75	303.15	.00834812	.00139	
