Measured thermophysical data. Critical properties of some alkylnaphthalenes
Source: Fluid Phase Equilib., 2013, 10.1016/j.fluid.2013.08.041
Compound 1: 1-methylnaphthalene, C11H10, purity 99.2%
Compound 2: 2-methylnaphthalene, C11H10, purity 99.5%
Compound 3: 1,3-dimethylnaphthalene, C12H12, purity 99.6%
Compound 4: 1,4-dimethylnaphthalene, C12H12, purity 99.4%
Compound 5: 2-ethylnaphthalene, C12H12, purity 99.9%

System: 1-methylnaphthalene; phases: Liquid, Gas
Property: Normal boiling temperature, K (Liquid); method: Ebulliometric method (Recirculating still)
Normal boiling temperature, K	uncertainty
517.7	

System: 1-methylnaphthalene; phases: Liquid, Gas
Property: Critical temperature, K (Liquid); method: Visual observation in a stirred cell
Critical temperature, K	uncertainty
773	8

System: 1-methylnaphthalene; phases: Liquid, Gas
Property: Critical pressure, kPa (Liquid); method: Direct measurement
Critical pressure, kPa	uncertainty
3540	110

System: 2-methylnaphthalene; phases: Liquid, Gas
Property: Normal boiling temperature, K (Liquid); method: Ebulliometric method (Recirculating still)
Normal boiling temperature, K	uncertainty
514.2	

System: 2-methylnaphthalene; phases: Liquid, Gas
Property: Critical temperature, K (Liquid); method: Visual observation in a stirred cell
Critical temperature, K	uncertainty
755	8

System: 2-methylnaphthalene; phases: Liquid, Gas
Property: Critical pressure, kPa (Liquid); method: Direct measurement
Critical pressure, kPa	uncertainty
3300	100

System: 1,3-dimethylnaphthalene; phases: Liquid, Gas
Property: Normal boiling temperature, K (Liquid); method: Ebulliometric method (Recirculating still)
Normal boiling temperature, K	uncertainty
538.2	

System: 1,3-dimethylnaphthalene; phases: Liquid, Gas
Property: Critical temperature, K (Liquid); method: Visual observation in a stirred cell
Critical temperature, K	uncertainty
772	8

System: 1,3-dimethylnaphthalene; phases: Liquid, Gas
Property: Critical pressure, kPa (Liquid); method: Direct measurement
Critical pressure, kPa	uncertainty
2740	80

System: 1,4-dimethylnaphthalene; phases: Liquid, Gas
Property: Normal boiling temperature, K (Liquid); method: Ebulliometric method (Recirculating still)
Normal boiling temperature, K	uncertainty
538.3	

System: 1,4-dimethylnaphthalene; phases: Liquid, Gas
Property: Critical temperature, K (Liquid); method: Visual observation in a stirred cell
Critical temperature, K	uncertainty
778	8

System: 1,4-dimethylnaphthalene; phases: Liquid, Gas
Property: Critical pressure, kPa (Liquid); method: Direct measurement
Critical pressure, kPa	uncertainty
2790	80

System: 2-ethylnaphthalene; phases: Liquid, Gas
Property: Normal boiling temperature, K (Liquid); method: Ebulliometric method (Recirculating still)
Normal boiling temperature, K	uncertainty
527.2	

System: 2-ethylnaphthalene; phases: Liquid, Gas
Property: Critical temperature, K (Liquid); method: Visual observation in a stirred cell
Critical temperature, K	uncertainty
763	8

System: 2-ethylnaphthalene; phases: Liquid, Gas
Property: Critical pressure, kPa (Liquid); method: Direct measurement
Critical pressure, kPa	uncertainty
2790	80
