Measured thermophysical data. Isobaric vapor-liquid liquid equilibrium for isopropenyl acetate + water + acetic  acid at 101 kPa
Source: Fluid Phase Equilib., 2012, 10.1016/j.fluid.2011.10.025
Compound 1: 1-methylvinyl ethanoate, C5H8O2, purity 99%
Compound 2: ethanoic acid, C2H4O2, purity 99.5%
Compound 3: water, H2O, purity 99.8%

System: ethanoic acid + 1-methylvinyl ethanoate + water; phases: Liquid mixture 1, Liquid mixture 2, Gas
Fixed: Pressure, kPa = 101
Property: Mole fraction of water (Liquid mixture 1); method: Chromatography
Property: Mole fraction of 1-methylvinyl ethanoate (Liquid mixture 1); method: Chromatography
Property: Mole fraction of water (Liquid mixture 2); method: Chromatography
Property: Mole fraction of 1-methylvinyl ethanoate (Liquid mixture 2); method: Chromatography
Property: Mole fraction of 1-methylvinyl ethanoate (Gas); method: Chromatography
Property: Mole fraction of water (Gas); method: Chromatography
Temperature, K	Mole fraction of water	uncertainty	Mole fraction of 1-methylvinyl ethanoate	uncertainty	Mole fraction of water	uncertainty	Mole fraction of 1-methylvinyl ethanoate	uncertainty	Mole fraction of 1-methylvinyl ethanoate	uncertainty	Mole fraction of water	uncertainty
353.05	.1319	.003	.8681	.003	.9898	.003	.0102	.003	.5269	.003	.4731	.003
355.5	.5119	.003	.3068	.003	.8662	.003	.0325	.003	.4718	.003	.4955	.003
355.71	.5369	.003	.2754	.003	.8512	.003	.0369	.003	.4612	.003	.5043	.003
355.79	.5719	.003	.2416	.003	.8389	.003	.0396	.003	.4574	.003	.5069	.003
355.97	.5897	.003	.2225	.003	.8235	.003	.0462	.003	.4502	.003	.5084	.003
356.13	.6026	.003	.2097	.003	.8157	.003	.0505	.003	.4441	.003	.5135	.003
353.26	.186	.003	.7799	.003	.9752	.003	.0105	.003	.5254	.003	.4709	.003
353.53	.2288	.003	.7031	.003	.9593	.003	.0135	.003	.5209	.003	.4737	.003
353.85	.2657	.003	.6362	.003	.9486	.003	.0155	.003	.5164	.003	.4739	.003
354.16	.3143	.003	.5651	.003	.9305	.003	.0193	.003	.5077	.003	.478	.003
354.46	.3624	.003	.4907	.003	.9236	.003	.0184	.003	.5034	.003	.4782	.003
354.88	.4032	.003	.4329	.003	.9057	.003	.0229	.003	.4949	.003	.4839	.003
355.05	.4488	.003	.3771	.003	.8896	.003	.0243	.003	.4869	.003	.4873	.003
355.29	.4906	.003	.3306	.003	.8727	.003	.0306	.003	.4752	.003	.4957	.003
