Measured thermophysical data. Liquid-liquid equilibrium of 2-methyltetrahydrofuran/water over wide temperature range: Measurements and rigorous regression
Source: Fluid Phase Equilib., 2017, 10.1016/j.fluid.2016.11.004
Compound 1: 2-methyltetrahydrofuran, C5H10O, purity 99.95%
Compound 2: water, H2O, purity 99.9%

System: 2-methyltetrahydrofuran + water; phases: Liquid mixture 1, Liquid mixture 2
Property: Mole fraction of 2-methyltetrahydrofuran (Liquid mixture 1); method: FTIR spectroscopy
Temperature, K	Pressure, kPa	Mole fraction of 2-methyltetrahydrofuran	uncertainty
293.15	22	.81954	
303.15	35	.82128	
313.15	43	.82247	
323.15	61	.80885	
333.15	67	.81625	
343.15	96	.79536	

System: 2-methyltetrahydrofuran + water; phases: Liquid mixture 2, Liquid mixture 1
Property: Mole fraction of 2-methyltetrahydrofuran (Liquid mixture 2); method: Raman spectroscopy
Temperature, K	Pressure, kPa	Mole fraction of 2-methyltetrahydrofuran	uncertainty
293.15	22	.030537	
303.15	35	.02292	
313.15	43	.019512	
323.15	61	.015832	
333.15	67	.014731	
343.15	96	.011415	

System: 2-methyltetrahydrofuran + water; phases: Liquid mixture 1, Liquid mixture 2
Property: Mole fraction of 2-methyltetrahydrofuran (Liquid mixture 1); method: Chromatography
Temperature, K	Pressure, kPa	Mole fraction of 2-methyltetrahydrofuran	uncertainty
293.15	22	.84781	
303.15	35	.83284	
333.15	67	.82049	
363.15	194	.83764	
393.15	471	.80286	
423.15	965	.77558	

System: 2-methyltetrahydrofuran + water; phases: Liquid mixture 2, Liquid mixture 1
Property: Mole fraction of 2-methyltetrahydrofuran (Liquid mixture 2); method: Chromatography
Temperature, K	Pressure, kPa	Mole fraction of 2-methyltetrahydrofuran	uncertainty
293.15	22	.024922	
303.15	35	.027406	
333.15	67	.011802	
363.15	194	.011732	
393.15	471	.009517	
423.15	965	.012269	
