Measured thermophysical data. Measurement and correlation of the mutual solubility of diisopropylamine + water and triethylamine + water systems at high pressure
Source: Fluid Phase Equilib., 2014, 10.1016/j.fluid.2013.11.027
Compound 1: water, H2O, purity 99.9%
Compound 2: 2-propanamine, N-isopropyl-, C6H15N, purity 99%
Compound 3: triethylamine, C6H15N, purity 99.5%
Compound 4: 2-butanol, C4H10O, purity 99.5%

System: water; phases: Liquid
Fixed: Pressure, kPa = 101.325
Property: Refractive index (Na D-line) (Liquid); method: Standard Abbe refractometry
Temperature, K	Refractive index (Na D-line)	uncertainty
293.15	1.333	.0001

System: 2-propanamine, N-isopropyl-; phases: Liquid
Fixed: Pressure, kPa = 101.325
Property: Refractive index (Na D-line) (Liquid); method: Standard Abbe refractometry
Temperature, K	Refractive index (Na D-line)	uncertainty
293.15	1.3922	.0001

System: triethylamine; phases: Liquid
Fixed: Pressure, kPa = 101.325
Property: Refractive index (Na D-line) (Liquid); method: Standard Abbe refractometry
Temperature, K	Refractive index (Na D-line)	uncertainty
293.15	1.3966	.0001

System: 2-butanol; phases: Liquid
Fixed: Pressure, kPa = 101.325
Property: Refractive index (Na D-line) (Liquid); method: Standard Abbe refractometry
Temperature, K	Refractive index (Na D-line)	uncertainty
293.15	1.3962	.0001

System: 2-butanol + water; phases: Liquid mixture 1, Liquid mixture 2
Property: Mass fraction of water (Liquid mixture 1); method: visual method (cloud point)
Temperature, K	Pressure, kPa	Mass fraction of water	uncertainty
334.3	32120	.1743	
313.4	54260	.2938	
334.2	84340	.4168	

System: 2-butanol + water; phases: Liquid mixture 2, Liquid mixture 1
Property: Mass fraction of water (Liquid mixture 2); method: visual method
Temperature, K	Pressure, kPa	Mass fraction of water	uncertainty
356.1	54160	.5258	
333.7	47840	.5926	
324.2	35330	.5961	

System: 2-propanamine, N-isopropyl- + water; phases: Liquid mixture 1, Liquid mixture 2
Property: Mass fraction of 2-propanamine, N-isopropyl- (Liquid mixture 1); method: visual method (cloud point)
Temperature, K	Pressure, kPa	Mass fraction of 2-propanamine, N-isopropyl-	uncertainty
303.2	16800	.1	
308.2	38200	.1	
313.2	56700	.1	
316.2	71800	.1	
303.2	23800	.15	
305.2	28600	.15	
308.2	52400	.15	
310.2	64900	.15	
313.2	76200	.15	
316.2	96100	.15	
303.2	28100	.2	
305.2	44400	.2	
308.2	58800	.2	
310.2	76000	.2	
313.2	85300	.2	
316.2	100800	.2	
303.2	27400	.25	
305.2	43600	.25	
308.2	58500	.25	
310.2	78900	.25	
313.2	86200	.25	
316.2	103800	.25	
303.2	27200	.3	
305.2	42100	.3	
308.2	56200	.3	
310.2	77100	.3	
313.2	84000	.3	
316.2	102800	.3	
303.2	27200	.4	
305.2	38700	.4	
308.2	50100	.4	
310.2	70200	.4	
313.2	80400	.4	
316.2	96800	.4	
303.2	23200	.5	
305.2	38000	.5	
308.2	43600	.5	
310.2	60400	.5	
313.2	71600	.5	
316.2	87000	.5	
303.2	19800	.6	
305.2	30900	.6	
308.2	37000	.6	
310.2	49300	.6	
313.2	57800	.6	
316.2	77300	.6	
303.2	14700	.7	
305.2	20200	.7	
308.2	24300	.7	
310.2	32100	.7	
313.2	38800	.7	
316.2	54400	.7	
303.2	4220	.8	
305.2	6870	.8	
308.2	9130	.8	
310.2	10730	.8	
313.2	12600	.8	
316.2	16400	.8	

System: 2-propanamine, N-isopropyl- + water; phases: Liquid mixture 1, Liquid mixture 2
Property: Upper consolute composition: mass fraction of 2-propanamine, N-isopropyl- (Liquid mixture 1); method: dervied from data
Temperature, K	Upper consolute composition: mass fraction of 2-propanamine, N-isopropyl-	uncertainty
303.2	.00218	
305.2	.00252	
308.2	.00223	
310.2	.00249	
313.2	.00242	
316.2	.00257	

System: 2-propanamine, N-isopropyl- + water; phases: Liquid mixture 1, Liquid mixture 2
Property: Upper consolute pressure, kPa (Liquid mixture 1); method: dervied from data
Temperature, K	Upper consolute pressure, kPa	uncertainty
303.2	28400	100
305.2	44600	100
308.2	58500	100
310.2	78900	100
313.2	86200	100
316.2	103500	100

System: triethylamine + water; phases: Liquid mixture 1, Liquid mixture 2
Property: Mass fraction of triethylamine (Liquid mixture 1); method: visual method (cloud point)
Temperature, K	Pressure, kPa	Mass fraction of triethylamine	uncertainty
293.2	12400	.2	
295.2	22100	.2	
299.2	40700	.2	
301.2	53500	.2	
303.2	71600	.2	
306.2	83200	.2	
293.2	15700	.25	
295.2	27600	.25	
299.2	49300	.25	
301.2	60900	.25	
303.2	71000	.25	
306.2	86600	.25	
293.2	18600	.3	
295.2	30800	.3	
299.2	51700	.3	
301.2	60000	.3	
303.2	71200	.3	
306.2	88100	.3	
293.2	20200	.4	
295.2	31600	.4	
299.2	50400	.4	
301.2	61100	.4	
303.2	70700	.4	
306.2	87200	.4	
293.2	18400	.5	
295.2	28600	.5	
299.2	49300	.5	
301.2	59700	.5	
303.2	68100	.5	
306.2	84200	.5	
293.2	16300	.6	
295.2	27400	.6	
299.2	47500	.6	
293.2	9500	.7	
295.2	23600	.7	
299.2	44800	.7	
301.2	55100	.7	
303.2	63200	.7	
306.2	78000	.7	
295.2	14400	.8	
299.2	38000	.8	
301.2	50300	.8	
303.2	60200	.8	
306.2	71100	.8	
299.2	29400	.85	
301.2	50300	.85	
303.2	57400	.85	
306.2	69200	.85	
299.2	2110	.9	
301.2	32700	.9	
303.2	51300	.9	
306.2	60400	.9	
301.2	22400	.95	
303.2	40000	.95	
306.2	48100	.95	
301.2	57200	.6	
303.2	66300	.6	
306.2	80800	.6	

System: triethylamine + water; phases: Liquid mixture 1, Liquid mixture 2
Property: Upper consolute composition: mass fraction of triethylamine (Liquid mixture 1); method: dervied from data
Temperature, K	Upper consolute composition: mass fraction of triethylamine	uncertainty
293.2	.00379	
295.2	.0035	
299.2	.00301	
301.2	.0028	
303.2	.00243	
306.2	.00304	

System: triethylamine + water; phases: Liquid mixture 1, Liquid mixture 2
Property: Upper consolute pressure, kPa (Liquid mixture 1); method: dervied from data
Temperature, K	Upper consolute pressure, kPa	uncertainty
293.2	19900	100
295.2	31300	100
299.2	51200	100
301.2	60800	100
303.2	71500	100
306.2	88100	100
