Measured thermophysical data. Effect of cation on the solubility of carbon dioxide in three bis(fluorosulfonyl)imide low viscosity ([FSI]) ionic liquids
Source: Fluid Phase Equilib., 2014, 10.1016/j.fluid.2014.05.010
Compound 1: 1-butyl-3-methylimidazolium hexafluorophosphate, C8H15F6N2P, purity 97%
Compound 2: 1-methyl-1-propylpiperidinium bis(fluorosulfonyl)imide, C9H20F2N2O4S2, purity 99.9%
Compound 3: 1-methyl-1-propylpyrrolidinium bis(fluorosulfonyl)amide, C8H18F2N2O4S2, purity 99.9%
Compound 4: N,N-diethyl-N-methyl-N-propylammonium bis(fluorosulfonyl)imide, C8H20F2N2O4S2, purity 99.9%
Compound 5: carbon dioxide, CO2, purity 99.8%

System: 1-methyl-1-propylpiperidinium bis(fluorosulfonyl)imide; phases: Liquid
Fixed: Pressure, kPa = 101.325
Property: Mass density, kg/m3 (Liquid); method: Vibrating tube method
Temperature, K	Mass density, kg/m3	uncertainty
278.15	1336.173	.5
283.15	1332.193	.5
288.15	1328.287	.5
293.15	1324.437	.5
298.15	1320.583	.5
303.15	1316.723	.5
308.15	1312	.5
313.15	1308.087	.5
318.15	1304.8	.5
323.15	1300.04	.5
328.15	1297.107	.5
333.15	1292.377	.5
338.15	1288.657	.5
343.15	1284.353	.5
348.15	1280	.5
353.15	1277.583	.5

System: 1-methyl-1-propylpyrrolidinium bis(fluorosulfonyl)amide; phases: Liquid
Fixed: Pressure, kPa = 101.325
Property: Mass density, kg/m3 (Liquid); method: Vibrating tube method
Temperature, K	Mass density, kg/m3	uncertainty
278.15	1355.55	.5
283.15	1351.48	.5
288.15	1347.413	.5
293.15	1343.367	.5
298.15	1339.33	.5
303.15	1335.337	.5
308.15	1331.36	.5
313.15	1326.233	.5
318.15	1323.45	.5
323.15	1319.533	.5
328.15	1315.633	.5
333.15	1311.75	.5
338.15	1307.88	.5
343.15	1304.04	.5
348.15	1300.21	.5
353.15	1296.407	.5

System: N,N-diethyl-N-methyl-N-propylammonium bis(fluorosulfonyl)imide; phases: Liquid
Fixed: Pressure, kPa = 101.325
Property: Mass density, kg/m3 (Liquid); method: Vibrating tube method
Temperature, K	Mass density, kg/m3	uncertainty
278.15	1302.927	.5
283.15	1299.067	.5
288.15	1295.183	.5
293.15	1291.32	.5
298.15	1287.467	.5
303.15	1283.633	.5
308.15	1279.607	.5
313.15	1275.77	.5
318.15	1271.01	.5
323.15	1267.533	.5
328.15	1264.673	.5
333.15	1259.933	.5
338.15	1254.207	.5
343.15	1251.493	.5
348.15	1247.1	.5
353.15	1246.113	.5

System: carbon dioxide + 1-methyl-1-propylpiperidinium bis(fluorosulfonyl)imide; phases: Liquid, Gas
Property: Mole fraction of carbon dioxide (Liquid); method: Gravimetric Microbalance
Temperature, K	Pressure, kPa	Mole fraction of carbon dioxide	uncertainty
298.15	10	.002	.006
298.15	50.1	.013	.006
298.15	100.3	.024	.006
298.15	199.9	.047	.006
298.15	300	.07	.006
298.15	499.8	.112	.006
298.15	700	.151	.006
298.15	999.8	.205	.006
298.15	1200	.239	.006
298.15	1499.9	.287	.006
298.15	1699.9	.316	.006
298.15	1899.7	.344	.006
313.15	9.9	.002	.006
313.15	50	.009	.006
313.15	99.8	.018	.006
313.15	199.9	.036	.006
313.15	300	.054	.006
313.15	499.8	.087	.006
313.15	699.9	.117	.006
313.15	999.9	.16	.006
313.15	1199.8	.187	.006
313.15	1500.8	.225	.006
313.15	1699.9	.25	.006
313.15	1899.7	.272	.006
343.15	10	.002	.006
343.15	50.3	.005	.006
343.15	100	.011	.006
343.15	199.9	.023	.006
343.15	299.6	.034	.006
343.15	500	.053	.006
343.15	699.7	.071	.006
343.15	999.8	.099	.006
343.15	1199.8	.118	.006
343.15	1499.7	.144	.006
343.15	1699.9	.16	.006
343.15	1899.9	.173	.006

System: carbon dioxide + 1-methyl-1-propylpyrrolidinium bis(fluorosulfonyl)amide; phases: Liquid, Gas
Property: Mole fraction of carbon dioxide (Liquid); method: Gravimetric Microbalance
Temperature, K	Pressure, kPa	Mole fraction of carbon dioxide	uncertainty
298.15	10	.002	.006
298.15	49.9	.013	.006
298.15	100.1	.025	.006
298.15	199.9	.048	.006
298.15	299.7	.07	.006
298.15	499.6	.113	.006
298.15	699.8	.152	.006
298.15	999.7	.207	.006
298.15	1200	.241	.006
298.15	1500.6	.288	.006
298.15	1699.8	.317	.006
298.15	1899.9	.346	.006
313.15	9.9	.002	.006
313.15	49.9	.009	.006
313.15	99.6	.018	.006
313.15	199.9	.036	.006
313.15	300.1	.054	.006
313.15	499.9	.087	.006
313.15	699.8	.117	.006
313.15	1000.1	.161	.006
313.15	1200	.188	.006
313.15	1500.3	.227	.006
313.15	1699.6	.251	.006
313.15	1899.5	.274	.006
343.15	9.9005	.002	.006
343.15	50.2434	.005	.006
343.15	99.8746	.011	.006
343.15	200.1113	.023	.006
343.15	299.8408	.033	.006
343.15	499.7937	.054	.006
343.15	699.7998	.073	.006
343.15	999.8024	.102	.006
343.15	1200.876	.119	.006
343.15	1499.691	.143	.006
343.15	1699.591	.16	.006
343.15	1899.704	.174	.006

System: carbon dioxide + N,N-diethyl-N-methyl-N-propylammonium bis(fluorosulfonyl)imide; phases: Liquid, Gas
Property: Mole fraction of carbon dioxide (Liquid); method: Gravimetric Microbalance
Temperature, K	Pressure, kPa	Mole fraction of carbon dioxide	uncertainty
298.15	10.1	.003	.006
298.15	50	.013	.006
298.15	99.7	.026	.006
298.15	199.9	.05	.006
298.15	299.9	.074	.006
298.15	500.2	.117	.006
298.15	699.7	.158	.006
298.15	999.4	.214	.006
298.15	1199.9	.248	.006
298.15	1500	.296	.006
298.15	1699.9	.326	.006
298.15	1899.4	.354	.006
313.15	9.9	.002	.006
313.15	49.9	.01	.006
313.15	99.6	.019	.006
313.15	200.1	.038	.006
313.15	299.9	.056	.006
313.15	499.9	.09	.006
313.15	699.8	.122	.006
313.15	999.8	.166	.006
313.15	1199.7	.194	.006
313.15	1499.6	.234	.006
313.15	1699.9	.258	.006
313.15	1900.7	.282	.006
343.15	9.9	.002	.006
343.15	50	.005	.006
343.15	100	.011	.006
343.15	199.9	.024	.006
343.15	299.7	.034	.006
343.15	500.2	.056	.006
343.15	699.8	.076	.006
343.15	1000	.106	.006
343.15	1199.9	.125	.006
343.15	1499.9	.148	.006
343.15	1699.7	.166	.006
343.15	1899.7	.18	.006

System: carbon dioxide + 1-butyl-3-methylimidazolium hexafluorophosphate; phases: Liquid, Gas
Property: Mole fraction of carbon dioxide (Liquid); method: Gravimetric Microbalance
Temperature, K	Pressure, kPa	Mole fraction of carbon dioxide	uncertainty
298.15	10.3	.001	.006
298.15	50.1	.009	.006
298.15	99.9	.019	.006
298.15	399.9	.074	.006
298.15	699.6	.123	.006
298.15	999.7	.169	.006
298.15	1299.7	.211	.006
298.15	1499.9	.239	.006
298.15	1899.5	.29	.006
323.15	10	.002	.006
323.15	50	.007	.006
323.15	99.8	.013	.006
323.15	399.7	.048	.006
323.15	700	.081	.006
323.15	1001.2	.112	.006
323.15	1301	.142	.006
323.15	1499.8	.159	.006
323.15	1899.1	.196	.006
