Measured thermophysical data. Vapor liquid equilibria for water + acetic acid + (N,N-dimethylformamide  or dimethyl sulfoxide) at 13.33 kPa
Source: Fluid Phase Equilib., 2009, 10.1016/j.fluid.2008.09.010
Compound 1: water, H2O
Compound 2: acetic acid, C2H4O2, purity 99.5%
Compound 3: methyl sulfoxide, C2H6OS, purity 99.7%
Compound 4: N,N-dimethylformamide, C3H7NO, purity 99.5%

System: acetic acid; phases: Liquid, Gas
Property: Normal boiling temperature, K (Liquid); method: Ebulliometric method (Recirculating still)
Normal boiling temperature, K	uncertainty
391	.1

System: methyl sulfoxide; phases: Liquid, Gas
Property: Normal boiling temperature, K (Liquid); method: Ebulliometric method (Recirculating still)
Normal boiling temperature, K	uncertainty
461.92	.1

System: N,N-dimethylformamide; phases: Liquid, Gas
Property: Normal boiling temperature, K (Liquid); method: Ebulliometric method (Recirculating still)
Normal boiling temperature, K	uncertainty
425.7	.1

System: methyl sulfoxide + water; phases: Gas, Liquid
Fixed: Pressure, kPa = 13.33
Property: Boiling temperature at pressure P, K (Gas); method: Ebulliometric method (Recirculating still)
Mole fraction of water	Boiling temperature at pressure P, K	uncertainty
.8146	331.1	.1
.7329	335.65	.1
.6743	338.15	.1
.5848	344.05	.1
.52	349.95	.1
.3763	361.15	.1
.3443	362.65	.1
.2754	368.35	.1
.2439	370.55	.1
.2158	373.45	.1
.1708	377.65	.1
.1612	378.95	.1
.1508	380.45	.1
.1235	383.15	.1
.0939	386.27	.1
.088	388.15	.1

System: methyl sulfoxide + water; phases: Gas, Liquid
Fixed: Pressure, kPa = 13.33
Property: Mole fraction of water (Gas); method: Chromatography
Mole fraction of water	Mole fraction of water	uncertainty
.8146	.9975	
.7329	.9913	
.6743	.9832	
.5848	.9756	
.52	.942	
.3763	.8797	
.3443	.8535	
.2754	.7847	
.2439	.7612	
.2158	.7119	
.1708	.6282	
.1612	.5977	
.1508	.5786	
.1235	.482	
.0939	.408	
.088	.3818	

System: acetic acid + methyl sulfoxide; phases: Gas, Liquid
Fixed: Pressure, kPa = 13.33
Property: Boiling temperature at pressure P, K (Gas); method: Ebulliometric method (Recirculating still)
Mole fraction of acetic acid	Boiling temperature at pressure P, K	uncertainty
.8025	351.75	.1
.7464	358.45	.1
.7146	362.3	.1
.665	368.48	.1
.6304	373.05	.1
.5724	379.65	.1
.5402	383.25	.1
.5126	386.43	.1
.4828	389.35	.1
.4608	391.65	.1
.4189	394.52	.1
.3742	396.55	.1
.34	397.45	.1
.2809	398.65	.1
.2041	398.65	.1

System: acetic acid + methyl sulfoxide; phases: Gas, Liquid
Fixed: Pressure, kPa = 13.33
Property: Mole fraction of acetic acid (Gas); method: Chromatography
Mole fraction of acetic acid	Mole fraction of acetic acid	uncertainty
.8025	.9976	
.7464	.9952	
.7146	.9885	
.665	.9825	
.6304	.9633	
.5724	.9202	
.5402	.8801	
.5126	.8265	
.4828	.7671	
.4608	.7257	
.4189	.6346	
.3742	.5328	
.34	.4548	
.2809	.3106	
.2041	.1774	

System: acetic acid + N,N-dimethylformamide; phases: Gas, Liquid
Fixed: Pressure, kPa = 13.33
Property: Boiling temperature at pressure P, K (Gas); method: Ebulliometric method (Recirculating still)
Mole fraction of acetic acid	Boiling temperature at pressure P, K	uncertainty
0	363.65	.1
.0609	364.57	.1
.1385	366.25	.1
.2149	367.93	.1
.3177	369.85	.1
.3832	370.65	.1
.4277	370.3	.1
.5133	367.55	.1
.5851	363.3	.1
.6449	358.35	.1
.696	354	.1
.7411	350.25	.1
.776	347.47	.1
.8161	344.65	.1
1	336.55	.1

System: acetic acid + N,N-dimethylformamide; phases: Gas, Liquid
Fixed: Pressure, kPa = 13.33
Property: Mole fraction of acetic acid (Gas); method: Chromatography
Mole fraction of acetic acid	Mole fraction of acetic acid	uncertainty
0	0	
.0609	.0161	
.1385	.052	
.2149	.1069	
.3177	.2449	
.3832	.3841	
.4277	.4898	
.5133	.6897	
.5851	.8114	
.6449	.894	
.696	.9458	
.7411	.9669	
.776	.9804	
.8161	.9867	
1	1	

System: acetic acid + methyl sulfoxide + water; phases: Gas, Liquid
Fixed: Pressure, kPa = 13.33
Property: Mole fraction of acetic acid (Gas); method: Chromatography
Property: Mole fraction of water (Liquid); method: Chromatography
Property: Mole fraction of acetic acid (Liquid); method: Chromatography
Temperature, K	Mole fraction of water	Mole fraction of acetic acid	uncertainty	Mole fraction of water	uncertainty	Mole fraction of acetic acid	uncertainty
357.62	.8069	.1431		.2788		.3164	
363.7	.7683	.1523		.2376		.3193	
362.15	.7492	.1712		.2238		.3215	
365.1	.7426	.181		.2136		.3237	
368.55	.7269	.1966		.2038		.3213	
369.4	.712	.2085		.1968		.3237	
372.35	.6796	.2185		.1756		.3241	
371.8	.6512	.2272		.1702		.3248	
373.21	.5886	.2298		.1454		.3282	
373.8	.599	.243		.1492		.3248	
373.9	.633	.2088		.166		.3237	
383.32	.4744	.1813		.1		.2641	
385.08	.4361	.1869		.088		.2612	
386.52	.4574	.1824		.0926		.2606	
387.84	.3612	.2199		.069		.2616	
388.2	.3123	.2184		.0556		.2627	
391.92	.2619	.209		.0432		.2624	

System: acetic acid + N,N-dimethylformamide + water; phases: Gas, Liquid
Fixed: Pressure, kPa = 13.33
Property: Mole fraction of acetic acid (Gas); method: Chromatography
Property: Mole fraction of water (Liquid); method: Chromatography
Property: Mole fraction of acetic acid (Liquid); method: Chromatography
Temperature, K	Mole fraction of water	Mole fraction of acetic acid	uncertainty	Mole fraction of water	uncertainty	Mole fraction of acetic acid	uncertainty
330	.9311	.0443		.5275		.1807	
331.23	.9212	.0501		.4956		.1948	
333.08	.9057	.0556		.4659		.2075	
333.69	.8933	.0592		.4463		.2151	
334.8	.8749	.0647		.4132		.2283	
335.34	.8639	.0692		.391		.2358	
335.74	.8497	.0731		.3702		.2455	
336.16	.8419	.0759		.3612		.2516	
337.26	.828	.0808		.3355		.2575	
338.31	.8145	.0884		.3125		.2598	
339.21	.8021	.1095		.2933		.2678	
339.61	.7903	.0923		.2784		.2742	
342.41	.7762	.0894		.2678		.2744	
342.48	.7555	.0823		.2479		.2821	
344.28	.7611	.1015		.2335		.2907	
