Measured thermophysical data. Hydrogen solubility in triolein, and propane solubility in oleic acid for second generation BDF synthesis by use of hydrodeoxygenation reaction
Source: Fluid Phase Equilib., 2014, 10.1016/j.fluid.2013.11.006
Compound 1: hydrogen, H2, purity 99.99%
Compound 2: propane, C3H8, purity 99.9%
Compound 3: decane, C10H22, purity 99%
Compound 4: 1,2,3-tri(cis-9-octadecenoyl)glycerol, C57H104O6, purity 60%
Compound 5: oleic acid, C18H34O2, purity 90%

System: decane + hydrogen; phases: Gas, Liquid
Property: Vapor or sublimation pressure, kPa (Gas); method: Ebulliometric method (Recirculating still)
Temperature, K	Mole fraction of hydrogen	Vapor or sublimation pressure, kPa	uncertainty
343.197	.05427	6977	1
343.224	.0647	8258	1
343.192	.07835	10173	2
343.167	.0877	11333	1
343.228	.09466	12342	2
413.157	.08333	7968	4
413.213	.09245	8803	1
413.162	.1067	10353	1
413.159	.121	12182	7
473.19	.0655	4930	2
473.188	.07987	5977	1
473.168	.09772	7303	1
473.17	.111	8382	2
473.168	.12	9059	2
473.19	.1302	10000	2

System: propane + decane; phases: Gas, Liquid
Property: Vapor or sublimation pressure, kPa (Gas); method: Ebulliometric method (Recirculating still)
Temperature, K	Mole fraction of propane	Vapor or sublimation pressure, kPa	uncertainty
410.924	.627	3832	1
410.929	.7013	4293	1
410.924	.7417	4570	1
410.965	.7674	4918	2
410.95	.8075	5242	2
410.93	.824	5337	3
410.952	.8638	5641	1
410.939	.8983	5843	2
477.544	.3986	3744	3
477.58	.4311	4105	3
477.578	.5077	4941	2
477.573	.5726	5652	2
477.609	.6771	6573	2
477.544	.3986	3744	3

System: 1,2,3-tri(cis-9-octadecenoyl)glycerol + hydrogen; phases: Gas, Liquid
Property: Vapor or sublimation pressure, kPa (Gas); method: Ebulliometric method (Recirculating still)
Temperature, K	Mole fraction of hydrogen	Vapor or sublimation pressure, kPa	uncertainty
353.202	.1323	7476	1
353.206	.1536	8922	2
353.186	.1734	9746	2
353.198	.1898	10796	1
353.175	.2143	12237	2
413.174	.177	8204	1
413.167	.2107	9714	1
413.202	.2372	11010	1
413.2	.2576	12183	1
473.173	.1488	5902	1
473.209	.1855	7478	1
473.206	.2211	9172	1
473.2	.2654	11018	1
473.195	.2932	12342	2

System: propane + oleic acid; phases: Gas, Liquid
Property: Vapor or sublimation pressure, kPa (Gas); method: Ebulliometric method (Recirculating still)
Temperature, K	Mole fraction of propane	Vapor or sublimation pressure, kPa	uncertainty
413.182	.5566	4546	1
413.154	.6495	5593	2
413.168	.7013	6289	2
413.2	.7638	7292	2
413.159	.8034	8200	6
413.172	.8559	9288	4
443.201	.4902	5201	2
443.193	.6028	6668	2
443.164	.6847	8315	2
443.2	.7771	10267	2
443.182	.8271	11627	3
473.174	.387	4644	2
473.201	.4531	5513	2
473.182	.5233	6878	6
473.173	.5983	8215	5
473.199	.6551	9359	3
473.16	.6904	10395	2
473.164	.7436	11549	1
