Measured thermophysical data. (Liquid-liquid) equilibria for ternary and quaternary systems of  representative compounds of gasoline + methanol at 293.15 K: Experimental data and correlation
Source: Fluid Phase Equilib., 2013, 10.1016/j.fluid.2013.03.022
Compound 1: heptane, C7H16, purity 99%
Compound 2: benzene, C6H6, purity 99%
Compound 3: methanol, CH4O, purity 99%
Compound 4: ethylbenzene, C8H10, purity 99%
Compound 5: 1,3-dimethylbenzene, C8H10, purity 99%

System: methanol + benzene + heptane; phases: Liquid mixture 2, Liquid mixture 1
Fixed: Pressure, kPa = 100
Fixed: Temperature, K = 293.15
Property: Mole fraction of benzene (Liquid mixture 2); method: Chromatography
Property: Mole fraction of heptane (Liquid mixture 1); method: Chromatography
Property: Mole fraction of benzene (Liquid mixture 1); method: Chromatography
Mole fraction of heptane	Mole fraction of benzene	uncertainty	Mole fraction of heptane	uncertainty	Mole fraction of benzene	uncertainty
.0812	0	.0026	.8432	.0047	0	.0026
.0957	.0184	.0026	.781	.0047	.0456	.0026
.1141	.0401	.0026	.7071	.0047	.0923	.0026
.1372	.0654	.0026	.6281	.0047	.1356	.0026
.1726	.0924	.0026	.5418	.0047	.1612	.0026
.2043	.1118	.0026	.4746	.0047	.1686	.0026

System: methanol + ethylbenzene + heptane; phases: Liquid mixture 2, Liquid mixture 1
Fixed: Pressure, kPa = 100
Fixed: Temperature, K = 293.15
Property: Mole fraction of heptane (Liquid mixture 2); method: Chromatography
Property: Mole fraction of heptane (Liquid mixture 1); method: Chromatography
Property: Mole fraction of ethylbenzene (Liquid mixture 1); method: Chromatography
Mole fraction of ethylbenzene	Mole fraction of heptane	uncertainty	Mole fraction of heptane	uncertainty	Mole fraction of ethylbenzene	uncertainty
.0034	.0825	.0047	.8309	.0047	.0137	.0026
.0103	.085	.0047	.7912	.0047	.0403	.0026
.0221	.0872	.0047	.7332	.0047	.0778	.0026
.0362	.0945	.0047	.665	.0047	.1123	.0026
.0518	.1107	.0047	.5885	.0047	.1413	.0026
.0587	.1149	.0047	.5762	.0047	.145	.0026

System: methanol + 1,3-dimethylbenzene + heptane; phases: Liquid mixture 2, Liquid mixture 1
Fixed: Pressure, kPa = 1000
Fixed: Temperature, K = 293.15
Property: Mole fraction of 1,3-dimethylbenzene (Liquid mixture 2); method: Chromatography
Property: Mole fraction of heptane (Liquid mixture 1); method: Chromatography
Property: Mole fraction of 1,3-dimethylbenzene (Liquid mixture 1); method: Chromatography
Mole fraction of heptane	Mole fraction of 1,3-dimethylbenzene	uncertainty	Mole fraction of heptane	uncertainty	Mole fraction of 1,3-dimethylbenzene	uncertainty
.0878	.0057	.0026	.8141	.0047	.0251	.0026
.0916	.0116	.0026	.7729	.0047	.0511	.0026
.0958	.0207	.0026	.7259	.0047	.0808	.0026
.1055	.0337	.0026	.6609	.0047	.1162	.0026
.1109	.0497	.0026	.5886	.0047	.1437	.0026
.1376	.0787	.0026	.4883	.0047	.1743	.0026
.1464	.0873	.0026	.4707	.0047	.1806	.0026
