Measured thermophysical data. The viscosity of triethylamine vapor at low densities and in the saturated vapor phase
Source: Fluid Phase Equilib., 2010, 10.1016/j.fluid.2010.02.037
Compound 1: triethylamine, C6H15N

System: triethylamine; phases: Gas
Property: Viscosity, Pa*s (Gas); method: Oscillating disk viscometry
Amount density, mol/m3	Temperature, K	Viscosity, Pa*s	uncertainty
2.2	299.85	.000006485	.000000019455
2.2	313.96	.000006764	.000000020292
2.2	326.63	.000007024	.000000021072
2.2	339.05	.000007275	.000000021825
2.2	352.5	.000007551	.000000022653
2.2	366.6	.000007842	.000000023526
2.2	381.14	.000008137	.000000024411
2.2	394.56	.000008413	.000000025239
2.2	409.2	.000008718	.000000026154
2.2	422.79	.000008996	.000000026988
2.2	437.42	.000009296	.000000027888
2.2	451.72	.000009594	.000000028782
2.2	466.58	.000009907	.000000029721
2.2	480.36	.000010189	.000000030567
2.2	498.45	.000010562	.000000031686
2.2	299.67	.00000649	.00000001947
3.13	303.12	.000006548	.000000019644
3.13	316.33	.000006815	.000000020445
3.13	324.26	.000006981	.000000020943
3.13	338.31	.000007259	.000000021777
3.13	352.91	.000007557	.000000022671
3.13	366.49	.000007839	.000000023517
3.13	380.67	.000008129	.000000024387
3.13	394.95	.000008423	.000000025269
3.13	412.99	.000008804	.000000026412
3.13	423.41	.000009012	.000000027036
3.13	437.51	.000009315	.000000027945
3.13	451.74	.000009599	.000000028797
3.13	469.98	.000009985	.000000029955
3.13	480.86	.000010202	.000000030606
3.13	498.38	.000010568	.000000031704
3.13	300.02	.000006488	.000000019464
4.2	296.98	.000006418	.000000019254
4.2	310.02	.000006668	.000000020004
4.2	324.95	.000006971	.000000020913
4.2	338.63	.000007245	.000000021735
4.2	353.3	.000007551	.000000022653
4.2	365.86	.000007803	.000000023409
4.2	385.41	.000008217	.000000024651
4.2	394.25	.000008388	.000000025164
4.2	409.73	.000008711	.000000026133
4.2	423.93	.000008988	.000000026964
4.2	436.97	.000009275	.000000027825
4.2	451.76	.000009586	.000000028758
4.2	466.71	.000009893	.000000029679
4.2	481.32	.000010193	.000000030579
4.2	495.31	.000010487	.000000031461
4.2	297.97	.000006439	.000000019317
4.99	297.98	.00000644	.00000001932
4.99	314.61	.00000675	.00000002025
4.99	325.84	.00000698	.00000002094
4.99	338.25	.000007233	.000000021699
4.99	352.46	.000007529	.000000022587
4.99	367.25	.000007831	.000000023493
4.99	380.54	.000008109	.000000024327
4.99	394.51	.000008386	.000000025158
4.99	409.32	.000008707	.000000026121
4.99	423.25	.000008991	.000000026973
4.99	437.62	.000009286	.000000027858
4.99	451.28	.000009572	.000000028716
4.99	466.45	.000009879	.000000029637
4.99	480.43	.000010172	.000000030516
4.99	495.29	.000010467	.000000031401
4.99	298.33	.000006437	.000000019311
6.31	299.36	.000006449	.000000019347
6.31	310.29	.000006654	.000000019962
6.31	324.9	.000006948	.000000020844
6.31	337.84	.000007205	.000000021615
6.31	352.41	.000007492	.000000022476
6.31	366.77	.000007784	.000000023352
6.31	381.83	.000008106	.000000024318
6.31	394.49	.00000837	.00000002511
6.31	408.97	.000008662	.000000025986
6.31	423.92	.000008966	.000000026898
6.31	437.11	.000009249	.000000027747
6.31	451.66	.000009554	.000000028662
6.31	465.92	.000009846	.000000029538
6.31	481.09	.000010153	.000000030459
6.31	495.17	.000010445	.000000031335
6.31	297.59	.000006412	.000000019236
7.52	326.04	.000006979	.000000020937
7.52	338.12	.000007218	.000000021654
7.52	352.32	.000007513	.000000022539
7.52	366.72	.000007801	.000000023403
7.52	385.75	.000008206	.000000024618
7.52	394.86	.000008384	.000000025152
7.52	409.67	.00000869	.00000002607
7.52	423.03	.000008963	.000000026889
7.52	437.87	.000009269	.000000027807
7.52	451.93	.000009558	.000000028674
7.52	471.39	.000009972	.000000029916
7.52	480.7	.000010149	.000000030447
7.52	495.84	.000010461	.000000031383
7.52	299.24	.000006446	.000000019338
8.75	297.87	.000006427	.000000019281
8.75	311.78	.000006667	.000000020001
8.75	324.05	.000006913	.000000020739
8.75	338.92	.000007217	.000000021651
8.75	352.34	.000007487	.000000022461
8.75	366.42	.000007782	.000000023346
8.75	381.06	.000008076	.000000024228
8.75	395.11	.000008369	.000000025107
8.75	408.35	.00000864	.00000002592
8.75	422.67	.000008939	.000000026817
8.75	437.76	.000009255	.000000027765
8.75	451.45	.000009534	.000000028602
8.75	466.63	.000009851	.000000029553
8.75	480.12	.000010126	.000000030378
8.75	496.21	.00001046	.00000003138
8.75	300.11	.00000646	.00000001938
