Measured thermophysical data. Carbon dioxide solubility in aqueous solutions of NaCl: Measurements and modeling with electrolyte equations of state
Source: Fluid Phase Equilib., 2015, 10.1016/j.fluid.2014.12.043
Compound 1: water, H2O, purity 99.9%
Compound 2: sodium chloride, ClNa, purity 99.9%
Compound 3: carbon dioxide, CO2, purity 99.998%

System: carbon dioxide + water; phases: Liquid, Gas
Property: Vapor or sublimation pressure, kPa (Liquid); method: Closed cell (Static) method
Mole fraction of carbon dioxide	Temperature, K	Vapor or sublimation pressure, kPa	uncertainty
.003	293.18	310	4
.003	303.28	520	4
.003	313.17	670	4
.003	323.15	900	4
.003	332.88	1140	4
.003	343.25	1310	4
.003	353.42	1490	4
.003	363.04	1710	4
.006	293.33	810	4
.006	303.54	1190	4
.006	313.58	1580	4
.006	323.39	1960	4
.006	333.74	2310	4
.006	343.17	2600	4
.006	353.17	3010	4
.006	363.15	3270	4
.008	293.17	1310	4
.008	303.24	1800	4
.008	313.4	2250	4
.008	323.52	2800	4
.008	333.39	3250	4
.008	343.12	3800	4
.008	353.48	4350	4
.008	363.42	4780	4
.01	293.29	1630	4
.01	303.87	2300	4
.01	313.87	2790	4
.01	322.97	3500	4
.01	333.62	4000	4
.01	343.65	4800	4
.01	352.99	5310	4
.01	362.98	5870	4
.012	283.55	1290	4
.012	293.13	1940	4
.012	303.2	2680	4
.012	313.16	3300	4
.012	323.19	4100	4
.012	333.12	4800	4
.012	343.06	5710	4
.012	353	6370	4
.012	363.19	6950	4
.015	283.41	1730	4
.015	293.13	2510	4
.015	303.28	3350	4
.015	313.19	4320	4
.015	322.94	5250	4
.015	333.19	6410	4
.015	343.29	7500	4
.015	353.31	8490	4
.015	363.11	9540	4
.018	283.24	2020	4
.018	293.48	2980	4
.018	303.08	4080	4
.018	313.3	5480	4
.018	323.17	6850	4
.018	333.2	8270	4
.018	343.18	9680	4
.018	352.91	11030	4
.018	363.12	12080	4
.02	283.35	2360	4
.02	293.27	3430	4
.02	303.42	4870	4
.02	313.37	6530	4
.02	323.24	8370	4
.02	333.06	10340	4
.02	342.96	11990	4

System: carbon dioxide + sodium chloride + water; phases: Liquid, Gas
Property: Vapor or sublimation pressure, kPa (Liquid); method: Closed cell (Static) method
Molality, mol/kg of sodium chloride	Mole fraction of carbon dioxide	Temperature, K	Vapor or sublimation pressure, kPa	uncertainty
.25	.007	293.37	1020	4
.25	.007	313.28	1810	4
.25	.007	333.31	2730	4
.25	.007	353.22	3510	4
.25	.012	293.42	2010	4
.25	.012	313.07	3700	4
.25	.012	333.06	5560	4
.25	.012	352.95	7340	4
.25	.017	293.3	2940	4
.25	.017	313.21	5510	4
.25	.017	333.03	8810	4
.25	.017	352.91	11390	4
.5	.007	293.08	1210	4
.5	.007	313.18	2140	4
.5	.007	333.24	3130	4
.5	.007	353.12	3960	4
.5	.012	293.38	2170	4
.5	.012	313.2	3910	4
.5	.012	333.12	5980	4
.5	.012	353.05	7780	4
.5	.017	293.17	3340	4
.5	.017	313.36	6400	4
.5	.017	333.18	9750	4
.5	.017	353.18	12530	4
1	.007	293.2	1350	4
1	.007	313.1	2400	4
1	.007	332.92	3540	4
1	.007	353.23	4720	4
1	.013	293.33	2480	4
1	.013	313.35	4420	4
1	.013	333.17	6750	4
1	.013	352.97	8510	4
1	.017	293.28	3950	4
1	.017	313.3	7620	4
1	.017	332.88	12250	4
2	.007	293.34	1780	4
2	.007	313.19	3000	4
2	.007	333.19	4410	4
2	.007	353.14	5720	4
2	.013	293.17	3760	4
2	.013	313.19	6750	4
2	.013	333.03	10640	4
2	.013	353.16	14290	4
2	.018	293.27	10590	4
