Measured thermophysical data. New device for fast measuring surface tension, density and viscosity of liquids
Source: Fluid Phase Equilib., 2008, 10.1016/j.fluid.2008.08.015
Compound 1: 1,2-ethanediol, C2H6O2
Compound 2: 1,2,3-propanetriol, C3H8O3

System: 1,2-ethanediol; phases: Liquid
Property: Mass density, kg/m3 (Liquid); method: Buoyancy - hydrostatic balance with magnetic suspension - one sinker
Temperature, K	Pressure, kPa	Mass density, kg/m3	uncertainty
295	101.325	1120.7	

System: 1,2-ethanediol; phases: Liquid, Gas
Property: Surface tension liquid-gas, N/m (Liquid); method: Maximal bubble pressure
Temperature, K	Surface tension liquid-gas, N/m	uncertainty
295	.04795	

System: 1,2-ethanediol; phases: Liquid
Property: Viscosity, Pa*s (Liquid); method: Concentric cylinders viscometry
Temperature, K	Pressure, kPa	Viscosity, Pa*s	uncertainty
295	101.325	.02126	

System: 1,2,3-propanetriol; phases: Liquid
Property: Mass density, kg/m3 (Liquid); method: Buoyancy - hydrostatic balance with magnetic suspension - one sinker
Temperature, K	Pressure, kPa	Mass density, kg/m3	uncertainty
295	101.325	1267.4	

System: 1,2,3-propanetriol; phases: Liquid, Gas
Property: Surface tension liquid-gas, N/m (Liquid); method: Maximal bubble pressure
Temperature, K	Surface tension liquid-gas, N/m	uncertainty
295	.06287	

System: 1,2,3-propanetriol; phases: Liquid
Property: Viscosity, Pa*s (Liquid); method: Concentric cylinders viscometry
Temperature, K	Pressure, kPa	Viscosity, Pa*s	uncertainty
295	101.325	1.4995	
