Measured thermophysical data. Binary solid-liquid equilibrium systems containing fatty acids, fatty alcohols and triolein by differential scanning calorimetry
Source: Fluid Phase Equilib., 2015, 10.1016/j.fluid.2015.06.015
Compound 1: 1,2,3-tri(cis-9-octadecenoyl)glycerol, C57H104O6, purity 99%
Compound 2: capric acid, C10H20O2, purity 99%
Compound 3: lauric acid, C12H24O2, purity 99%
Compound 4: myristic acid, C14H28O2, purity 99%
Compound 5: 1-decanol, C10H22O, purity 99.4%
Compound 6: 1-dodecanol, C12H26O, purity 98.5%
Compound 7: 1-tetradecanol, C14H30O, purity 98.4%

System: 1,2,3-tri(cis-9-octadecenoyl)glycerol; phases: Crystal 2, Crystal 1, Air at 1 atmosphere
Property: Triple point temperature, K (Crystal 2); method: DSC/DTA
Triple point temperature, K	uncertainty
258.99	.28

System: 1,2,3-tri(cis-9-octadecenoyl)glycerol; phases: Crystal 1, Liquid, Air at 1 atmosphere
Property: Normal melting temperature, K (Crystal 1); method: DSC/DTA
Normal melting temperature, K	uncertainty
278.57	.04

System: 1,2,3-tri(cis-9-octadecenoyl)glycerol; phases: Crystal 1, Liquid, Air at 1 atmosphere
Property: Molar enthalpy of transition or fusion, kJ/mol (Crystal 1); method: DSC
Molar enthalpy of transition or fusion, kJ/mol	uncertainty
114.61	.65

System: capric acid; phases: Crystal 1, Liquid, Air at 1 atmosphere
Property: Normal melting temperature, K (Crystal 1); method: DSC/DTA
Normal melting temperature, K	uncertainty
305.48	.1

System: capric acid; phases: Crystal 1, Liquid, Air at 1 atmosphere
Property: Molar enthalpy of transition or fusion, kJ/mol (Crystal 1); method: DSC
Molar enthalpy of transition or fusion, kJ/mol	uncertainty
27.23	.36

System: lauric acid; phases: Crystal 2, Crystal 1, Air at 1 atmosphere
Property: Triple point temperature, K (Crystal 2); method: DSC/DTA
Triple point temperature, K	uncertainty
317.91	.15

System: lauric acid; phases: Crystal 1, Liquid, Air at 1 atmosphere
Property: Normal melting temperature, K (Crystal 1); method: DSC/DTA
Normal melting temperature, K	uncertainty
318.48	.49

System: lauric acid; phases: Crystal 1, Liquid, Air at 1 atmosphere
Property: Molar enthalpy of transition or fusion, kJ/mol (Crystal 1); method: DSC
Molar enthalpy of transition or fusion, kJ/mol	uncertainty
34.62	.97

System: myristic acid; phases: Crystal 2, Crystal 1, Air at 1 atmosphere
Property: Triple point temperature, K (Crystal 2); method: DSC/DTA
Triple point temperature, K	uncertainty
327.95	.3

System: myristic acid; phases: Crystal 1, Liquid, Air at 1 atmosphere
Property: Normal melting temperature, K (Crystal 1); method: DSC/DTA
Normal melting temperature, K	uncertainty
328.93	.18

System: myristic acid; phases: Crystal 1, Liquid, Air at 1 atmosphere
Property: Molar enthalpy of transition or fusion, kJ/mol (Crystal 1); method: DSC
Molar enthalpy of transition or fusion, kJ/mol	uncertainty
43.95	.12

System: 1-decanol; phases: Crystal 2, Crystal 1, Air at 1 atmosphere
Property: Triple point temperature, K (Crystal 2); method: DSC/DTA
Triple point temperature, K	uncertainty
275.94	.29

System: 1-decanol; phases: Crystal 1, Liquid, Air at 1 atmosphere
Property: Normal melting temperature, K (Crystal 1); method: DSC/DTA
Normal melting temperature, K	uncertainty
280.11	.22

System: 1-decanol; phases: Crystal 1, Liquid, Air at 1 atmosphere
Property: Molar enthalpy of transition or fusion, kJ/mol (Crystal 1); method: DSC
Molar enthalpy of transition or fusion, kJ/mol	uncertainty
29.66	.84

System: 1-dodecanol; phases: Crystal 2, Crystal 1, Air at 1 atmosphere
Property: Triple point temperature, K (Crystal 2); method: DSC/DTA
Triple point temperature, K	uncertainty
296.95	.03

System: 1-dodecanol; phases: Crystal 1, Liquid, Air at 1 atmosphere
Property: Normal melting temperature, K (Crystal 1); method: DSC/DTA
Normal melting temperature, K	uncertainty
297.53	.05

System: 1-dodecanol; phases: Crystal 1, Liquid, Air at 1 atmosphere
Property: Molar enthalpy of transition or fusion, kJ/mol (Crystal 1); method: DSC
Molar enthalpy of transition or fusion, kJ/mol	uncertainty
38.46	.56

System: 1-dodecanol; phases: Crystal 3, Crystal 2, Air at 1 atmosphere
Property: Triple point temperature, K (Crystal 3); method: DSC/DTA
Triple point temperature, K	uncertainty
291.04	.3

System: 1-tetradecanol; phases: Crystal 2, Crystal 1, Air at 1 atmosphere
Property: Triple point temperature, K (Crystal 2); method: DSC/DTA
Triple point temperature, K	uncertainty
310.06	.35

System: 1-tetradecanol; phases: Crystal 1, Liquid, Air at 1 atmosphere
Property: Normal melting temperature, K (Crystal 1); method: DSC/DTA
Normal melting temperature, K	uncertainty
311.1	.2

System: 1-tetradecanol; phases: Crystal 1, Liquid, Air at 1 atmosphere
Property: Molar enthalpy of transition or fusion, kJ/mol (Crystal 1); method: DSC
Molar enthalpy of transition or fusion, kJ/mol	uncertainty
45.81	.87

System: 1,2,3-tri(cis-9-octadecenoyl)glycerol + capric acid; phases: Crystal, Liquid, Crystal, Air at 1 atmosphere
Fixed: Pressure, kPa = 101.325
Property: Eutectic temperature, K (Crystal); method: DSC/DTA
Eutectic temperature, K	uncertainty
277.3	

System: 1,2,3-tri(cis-9-octadecenoyl)glycerol + capric acid; phases: Liquid, Crystal
Fixed: Pressure, kPa = 94.6
Property: Solid-liquid equilibrium temperature, K (Liquid); method: DSC/DTA
Mole fraction of 1,2,3-tri(cis-9-octadecenoyl)glycerol	Solid-liquid equilibrium temperature, K	uncertainty
0	305.48	.3
.1014	300.94	.3
.2001	296.84	.3
.3001	292.69	.3
.3995	289.46	.3
.5013	285.78	.3
.601	282.81	.3
.6997	277.75	.3

System: 1,2,3-tri(cis-9-octadecenoyl)glycerol + capric acid; phases: Liquid, Crystal
Fixed: Pressure, kPa = 94.6
Property: Solid-liquid equilibrium temperature, K (Liquid); method: DSC/DTA
Mole fraction of 1,2,3-tri(cis-9-octadecenoyl)glycerol	Solid-liquid equilibrium temperature, K	uncertainty
.8008	278.17	.3
.8947	278.42	.3
1	278.57	.3

System: 1,2,3-tri(cis-9-octadecenoyl)glycerol + lauric acid; phases: Crystal, Crystal, Liquid, Air at 1 atmosphere
Fixed: Pressure, kPa = 101.325
Property: Eutectic temperature, K (Crystal); method: DSC/DTA
Eutectic temperature, K	uncertainty
277.87	

System: 1,2,3-tri(cis-9-octadecenoyl)glycerol + lauric acid; phases: Liquid, Crystal
Fixed: Pressure, kPa = 94.6
Property: Solid-liquid equilibrium temperature, K (Liquid); method: DSC/DTA
Mole fraction of 1,2,3-tri(cis-9-octadecenoyl)glycerol	Solid-liquid equilibrium temperature, K	uncertainty
0	318.48	.3
.0999	314.05	.3
.2001	310.51	.3
.2997	306.04	.3
.3997	304.55	.3
.4998	300.67	.3
.6008	296.49	.3
.6994	293.76	.3
.7975	287.23	.3
.8976	281.58	.3

System: 1,2,3-tri(cis-9-octadecenoyl)glycerol + lauric acid; phases: Liquid, Crystal
Fixed: Pressure, kPa = 94.6
Property: Solid-liquid equilibrium temperature, K (Liquid); method: DSC/DTA
Mole fraction of 1,2,3-tri(cis-9-octadecenoyl)glycerol	Solid-liquid equilibrium temperature, K	uncertainty
1	278.57	.3

System: 1,2,3-tri(cis-9-octadecenoyl)glycerol + myristic acid; phases: Crystal, Crystal, Liquid, Air at 1 atmosphere
Fixed: Pressure, kPa = 101.325
Property: Eutectic temperature, K (Crystal); method: DSC/DTA
Eutectic temperature, K	uncertainty
278.1	

System: 1,2,3-tri(cis-9-octadecenoyl)glycerol + myristic acid; phases: Liquid, Crystal
Fixed: Pressure, kPa = 94.6
Property: Solid-liquid equilibrium temperature, K (Liquid); method: DSC/DTA
Mole fraction of 1,2,3-tri(cis-9-octadecenoyl)glycerol	Solid-liquid equilibrium temperature, K	uncertainty
0	328.93	.3
.1	324.94	.3
.2003	322.19	.3
.3003	319.88	.3
.3999	316.89	.3
.4996	314.15	.3
.6013	310.92	.3
.6999	308.07	.3
.8005	304.3	.3
.8989	292.22	.3

System: 1,2,3-tri(cis-9-octadecenoyl)glycerol + myristic acid; phases: Liquid, Crystal
Fixed: Pressure, kPa = 94.6
Property: Solid-liquid equilibrium temperature, K (Liquid); method: DSC/DTA
Mole fraction of 1,2,3-tri(cis-9-octadecenoyl)glycerol	Solid-liquid equilibrium temperature, K	uncertainty
1	278.57	.3

System: 1-decanol + 1,2,3-tri(cis-9-octadecenoyl)glycerol; phases: Crystal, Crystal, Liquid, Air at 1 atmosphere
Fixed: Pressure, kPa = 101.325
Property: Eutectic temperature, K (Crystal); method: DSC/DTA
Eutectic temperature, K	uncertainty
275.38	

System: 1-decanol + 1,2,3-tri(cis-9-octadecenoyl)glycerol; phases: Liquid, Crystal
Fixed: Pressure, kPa = 94.6
Property: Solid-liquid equilibrium temperature, K (Liquid); method: DSC/DTA
Mole fraction of 1,2,3-tri(cis-9-octadecenoyl)glycerol	Solid-liquid equilibrium temperature, K	uncertainty
.6007	276.8	.3
.6988	276.95	.3
.7987	277.67	.3
.8876	278.04	.3
1	278.57	.3

System: 1-decanol + 1,2,3-tri(cis-9-octadecenoyl)glycerol; phases: Liquid, Crystal
Fixed: Pressure, kPa = 94.6
Property: Solid-liquid equilibrium temperature, K (Liquid); method: DSC/DTA
Mole fraction of 1,2,3-tri(cis-9-octadecenoyl)glycerol	Solid-liquid equilibrium temperature, K	uncertainty
0	280.11	.3
.0998	277.63	.3
.2005	276.73	.3
.2998	275.48	.3
.3987	275.83	.3
.5018	276.61	.3

System: 1-dodecanol + 1,2,3-tri(cis-9-octadecenoyl)glycerol; phases: Crystal, Crystal, Liquid, Air at 1 atmosphere
Fixed: Pressure, kPa = 101.325
Property: Eutectic temperature, K (Crystal); method: DSC/DTA
Eutectic temperature, K	uncertainty
277.13	

System: 1-dodecanol + 1,2,3-tri(cis-9-octadecenoyl)glycerol; phases: Liquid, Crystal
Fixed: Pressure, kPa = 94.6
Property: Solid-liquid equilibrium temperature, K (Liquid); method: DSC/DTA
Mole fraction of 1,2,3-tri(cis-9-octadecenoyl)glycerol	Solid-liquid equilibrium temperature, K	uncertainty
0	297.53	.3
.1004	295.29	.3
.1998	294.1	.3
.2998	292.34	.3
.4038	290.87	.3
.4996	289.04	.3
.5994	287.28	.3
.6994	285.24	.3
.8017	282.05	.3

System: 1-dodecanol + 1,2,3-tri(cis-9-octadecenoyl)glycerol; phases: Liquid, Crystal
Fixed: Pressure, kPa = 94.6
Property: Solid-liquid equilibrium temperature, K (Liquid); method: DSC/DTA
Mole fraction of 1,2,3-tri(cis-9-octadecenoyl)glycerol	Solid-liquid equilibrium temperature, K	uncertainty
.9018	278.19	.3
1	278.57	.3

System: 1-tetradecanol + 1,2,3-tri(cis-9-octadecenoyl)glycerol; phases: Crystal, Crystal, Liquid, Air at 1 atmosphere
Fixed: Pressure, kPa = 101.325
Property: Eutectic temperature, K (Crystal); method: DSC/DTA
Eutectic temperature, K	uncertainty
277.45	

System: 1-tetradecanol + 1,2,3-tri(cis-9-octadecenoyl)glycerol; phases: Liquid, Crystal
Fixed: Pressure, kPa = 94.6
Property: Solid-liquid equilibrium temperature, K (Liquid); method: DSC/DTA
Mole fraction of 1,2,3-tri(cis-9-octadecenoyl)glycerol	Solid-liquid equilibrium temperature, K	uncertainty
0	311.1	.3
.1004	308.86	.3
.2002	307.55	.3
.3002	305.07	.3
.3996	304.45	.3
.4999	303.13	.3
.6001	300.72	.3
.7008	297.33	.3
.8007	291.49	.3
.9	288.56	.3

System: 1-tetradecanol + 1,2,3-tri(cis-9-octadecenoyl)glycerol; phases: Liquid, Crystal
Fixed: Pressure, kPa = 94.6
Property: Solid-liquid equilibrium temperature, K (Liquid); method: DSC/DTA
Mole fraction of 1,2,3-tri(cis-9-octadecenoyl)glycerol	Solid-liquid equilibrium temperature, K	uncertainty
1	278.57	.3
