Measured thermophysical data. Phase equilibria in the ternary system (LiCl + Li2SO4+H2O) at T = 308.15 K and p = 0.1MPa: Experimental data and predictions using the Pitzer model
Source: Fluid Phase Equilib., 2015, 10.1016/j.fluid.2015.02.009
Compound 1: lithium chloride, ClLi, purity 99%
Compound 2: lithium sulfate, Li2O4S, purity 99.5%
Compound 3: water, H2O

System: lithium chloride + water + lithium sulfate; phases: Liquid
Fixed: Pressure, kPa = 100
Fixed: Temperature, K = 308.15
Property: Refractive index (Na D-line) (Liquid); method: Standard Abbe refractometry
Mass fraction of lithium sulfate	Mass fraction of lithium chloride	Refractive index (Na D-line)	uncertainty
.2656	0	1.3793	.0001
.2435	.0144	1.3761	.0001
.2321	.0175	1.3748	.0001
.2206	.0232	1.373	.0001
.206	.0312	1.3726	.0001
.1835	.0461	1.3717	.0001
.1525	.068	1.371	.0001
.1272	.0858	1.3706	.0001
.0857	.1185	1.3703	.0001
.0337	.1729	1.3737	.0001
.0208	.1982	1.377	.0001
.0066	.2416	1.3842	.0001
.0022	.2811	1.3928	.0001
.00069	.3288	1.4042	.0001
.00045	.3523	1.4095	.0001
.00032	.3809	1.4167	.0001
.00031	.4027	1.4232	.0001
.00036	.4706	1.4461	.0001
0	.4678	1.4398	.0001

System: lithium chloride + water + lithium sulfate; phases: Liquid
Fixed: Pressure, kPa = 100
Fixed: Temperature, K = 308.15
Property: Mass density, kg/m3 (Liquid); method: Pycnometric method
Mass fraction of lithium sulfate	Mass fraction of lithium chloride	Mass density, kg/m3	uncertainty
.2656	0	1233.8	.2
.2435	.0144	1223.7	.2
.2321	.0175	1212.4	.2
.2206	.0232	1206.4	.2
.206	.0312	1198.6	.2
.1835	.0461	1185	.2
.1525	.068	1168.7	.2
.1272	.0858	1156.1	.2
.0857	.1185	1137.1	.2
.0337	.1729	1124.2	.2
.0208	.1982	1128.1	.2
.0066	.2416	1142	.2
.0022	.2811	1164.6	.2
.00069	.3288	1197.1	.2
.00045	.3523	1212.9	.2
.00032	.3809	1235.6	.2
.00031	.4027	1247.6	.2
.00036	.4706	1304.1	.2
0	.4678	1299.7	.2

System: lithium chloride + water + lithium sulfate; phases: Liquid
Fixed: Pressure, kPa = 100
Fixed: Temperature, K = 308.15
Property: Viscosity, Pa*s (Liquid); method: Capillary tube (Ostwald; Ubbelohde) method
Mass fraction of lithium sulfate	Mass fraction of lithium chloride	Viscosity, Pa*s	uncertainty
.2656	0	.0036647	.0002
.00031	.4027	.0063265	.0002
.00036	.4706	.0133004	.0002
0	.4678	.0127617	.0002

System: lithium chloride + water + lithium sulfate; phases: Liquid
Fixed: Pressure, kPa = 100
Fixed: Temperature, K = 308.15
Property: Electrical conductivity, S/m (Liquid); method: Alternating current cell with electrodes
Mass fraction of lithium sulfate	Mass fraction of lithium chloride	Electrical conductivity, S/m	uncertainty
.2656	0	9.04	.0904
.00031	.4027	11.26	.1126
.00036	.4706	7.95	.0795
0	.4678	7.96	.0796
