Measured thermophysical data. Surface tension of pentafluoroethane + 1,1-difluoroethane from (243 to 328)K
Source: Fluid Phase Equilib., 2009, 10.1016/j.fluid.2009.09.005
Compound 1: pentafluoroethane, C2HF5, purity 99.95%
Compound 2: 1,1-difluoroethane, C2H4F2, purity 99.95%

System: 1,1-difluoroethane + pentafluoroethane; phases: Liquid, Gas
Property: Surface tension liquid-gas, N/m (Liquid); method: Capillary rise
Mass fraction of pentafluoroethane	Temperature, K	Surface tension liquid-gas, N/m	uncertainty
.097	243.165	.017	.0002
.097	248.126	.0162	.0002
.097	253.55	.0153	.0002
.097	258.109	.0146	.0002
.097	263.065	.0139	.0002
.097	268.122	.0133	.0002
.097	273.182	.0125	.0002
.097	278.182	.0118	.0002
.097	283.13	.0112	.0002
.097	288.165	.0106	.0002
.097	293.171	.0098	.0002
.097	298.095	.0092	.0002
.097	303.165	.0085	.0002
.097	308.095	.0079	.0002
.097	313.157	.0072	.0002
.097	318.115	.0065	.0002
.097	323.16	.0058	.0002
.097	328.11	.0052	.0002
.2019	243.08	.0165	.0002
.2019	248.095	.0158	.0002
.2019	253.125	.0151	.0002
.2019	258.157	.0144	.0002
.2019	263.185	.0135	.0002
.2019	268.17	.0129	.0002
.2019	273.189	.0122	.0002
.2019	278.42	.0114	.0002
.2019	283.153	.0106	.0002
.2019	288.16	.0099	.0002
.2019	293.145	.0094	.0002
.2019	298.083	.0088	.0002
.2019	303.133	.008	.0002
.2019	308.095	.0074	.0002
.2019	313.105	.0067	.0002
.2019	318.109	.0061	.0002
.2019	323.138	.0054	.0002
.2019	328.102	.0048	.0002
.2996	243.215	.0156	.0002
.2996	248.12	.015	.0002
.2996	253.133	.0143	.0002
.2996	258.163	.0137	.0002
.2996	263.17	.013	.0002
.2996	268.177	.0122	.0002
.2996	273.18	.0114	.0002
.2996	278.17	.0106	.0002
.2996	283.17	.0101	.0002
.2996	288.179	.0095	.0002
.2996	293.176	.0087	.0002
.2996	298.106	.008	.0002
.2996	303.175	.0074	.0002
.2996	308.118	.0067	.0002
.2996	313.186	.0061	.0002
.2996	318.164	.0055	.0002
.2996	323.173	.005	.0002
.2996	328.16	.0043	.0002
