Measured thermophysical data. Ternary phase diagrams for aqueous mixtures of butyric acid with several solvents: experimental and correlated data
Source: Fluid Phase Equilib., 2014, 10.1016/j.fluid.2014.03.008
Compound 1: butyric acid, C4H8O2, purity 99%
Compound 2: 1-octanol, C8H18O, purity 99%
Compound 3: acetophenone, C8H8O, purity 98%
Compound 4: ethyl butanoate, C6H12O2, purity 98%
Compound 5: ethyl pentanoate, C7H14O2, purity 99%
Compound 6: diethyl 1,3-propanedioate, C7H12O4, purity 98%
Compound 7: water, H2O, purity 99.8%

System: butyric acid; phases: Liquid
Fixed: Pressure, kPa = 101.325
Property: Mass density, kg/m3 (Liquid); method: Vibrating tube method
Temperature, K	Mass density, kg/m3	uncertainty
298.15	952.6	.01

System: butyric acid; phases: Liquid
Fixed: Pressure, kPa = 101.325
Property: Refractive index (Na D-line) (Liquid); method: Standard Abbe refractometry
Temperature, K	Refractive index (Na D-line)	uncertainty
293.15	1.3982	.0001

System: butyric acid; phases: Liquid, Gas
Property: Normal boiling temperature, K (Liquid); method: Ebulliometric method (Recirculating still)
Normal boiling temperature, K	uncertainty
436.8	.1

System: 1-octanol; phases: Liquid
Fixed: Pressure, kPa = 101.325
Property: Mass density, kg/m3 (Liquid); method: Vibrating tube method
Temperature, K	Mass density, kg/m3	uncertainty
298.15	825.95	.01

System: 1-octanol; phases: Liquid
Fixed: Pressure, kPa = 101.325
Property: Refractive index (Na D-line) (Liquid); method: Standard Abbe refractometry
Temperature, K	Refractive index (Na D-line)	uncertainty
293.15	1.428	.0001

System: 1-octanol; phases: Liquid, Gas
Property: Normal boiling temperature, K (Liquid); method: Ebulliometric method (Recirculating still)
Normal boiling temperature, K	uncertainty
468.2	.1

System: acetophenone; phases: Liquid
Fixed: Pressure, kPa = 101.325
Property: Mass density, kg/m3 (Liquid); method: Vibrating tube method
Temperature, K	Mass density, kg/m3	uncertainty
293.15	1027.9	.01

System: acetophenone; phases: Liquid
Fixed: Pressure, kPa = 101.325
Property: Refractive index (Na D-line) (Liquid); method: Standard Abbe refractometry
Temperature, K	Refractive index (Na D-line)	uncertainty
293.15	1.5361	.0001

System: acetophenone; phases: Liquid, Gas
Property: Normal boiling temperature, K (Liquid); method: Ebulliometric method (Recirculating still)
Normal boiling temperature, K	uncertainty
475.1	.1

System: ethyl butanoate; phases: Liquid
Fixed: Pressure, kPa = 101.325
Property: Mass density, kg/m3 (Liquid); method: Vibrating tube method
Temperature, K	Mass density, kg/m3	uncertainty
298.15	873.25	.01

System: ethyl butanoate; phases: Liquid
Fixed: Pressure, kPa = 101.325
Property: Refractive index (Na D-line) (Liquid); method: Standard Abbe refractometry
Temperature, K	Refractive index (Na D-line)	uncertainty
298.15	1.3891	.0001

System: ethyl butanoate; phases: Liquid, Gas
Property: Normal boiling temperature, K (Liquid); method: Ebulliometric method (Recirculating still)
Normal boiling temperature, K	uncertainty
394.55	.1

System: ethyl pentanoate; phases: Liquid
Fixed: Pressure, kPa = 101.325
Property: Mass density, kg/m3 (Liquid); method: Vibrating tube method
Temperature, K	Mass density, kg/m3	uncertainty
293.15	877.15	.01

System: ethyl pentanoate; phases: Liquid
Fixed: Pressure, kPa = 101.325
Property: Refractive index (Na D-line) (Liquid); method: Standard Abbe refractometry
Temperature, K	Refractive index (Na D-line)	uncertainty
293.15	1.4125	.0001

System: ethyl pentanoate; phases: Liquid, Gas
Property: Normal boiling temperature, K (Liquid); method: Ebulliometric method (Recirculating still)
Normal boiling temperature, K	uncertainty
419.3	.1

System: diethyl 1,3-propanedioate; phases: Liquid
Fixed: Pressure, kPa = 101.325
Property: Mass density, kg/m3 (Liquid); method: Vibrating tube method
Temperature, K	Mass density, kg/m3	uncertainty
293.15	1055.25	.01

System: diethyl 1,3-propanedioate; phases: Liquid
Fixed: Pressure, kPa = 101.325
Property: Refractive index (Na D-line) (Liquid); method: Standard Abbe refractometry
Temperature, K	Refractive index (Na D-line)	uncertainty
293.15	1.4135	.0001

System: diethyl 1,3-propanedioate; phases: Liquid, Gas
Property: Normal boiling temperature, K (Liquid); method: Ebulliometric method (Recirculating still)
Normal boiling temperature, K	uncertainty
473.05	.1

System: water; phases: Liquid
Fixed: Pressure, kPa = 101.325
Property: Mass density, kg/m3 (Liquid); method: Vibrating tube method
Temperature, K	Mass density, kg/m3	uncertainty
293.15	999.7	.01

System: water; phases: Liquid
Fixed: Pressure, kPa = 101.325
Property: Refractive index (Na D-line) (Liquid); method: Standard Abbe refractometry
Temperature, K	Refractive index (Na D-line)	uncertainty
293.15	1.3325	.0001

System: water; phases: Liquid, Gas
Property: Normal boiling temperature, K (Liquid); method: Ebulliometric method (Recirculating still)
Normal boiling temperature, K	uncertainty
373.25	.1

System: butyric acid + 1-octanol + water; phases: Liquid mixture 1, Liquid mixture 2
Property: Mole fraction of 1-octanol (Liquid mixture 1); method: Chromatography
Property: Mole fraction of 1-octanol (Liquid mixture 2); method: Chromatography
Property: Mole fraction of butyric acid (Liquid mixture 2); method: Chromatography
Temperature, K	Pressure, kPa	Mole fraction of butyric acid	Mole fraction of 1-octanol	uncertainty	Mole fraction of 1-octanol	uncertainty	Mole fraction of butyric acid	uncertainty
298.15	101.325	.0027	.0002	.002	.5989	.002	.0988	.002
298.15	101.325	.0054	.0003	.002	.4927	.002	.1749	.002
298.15	101.325	.0086	.0006	.002	.3938	.002	.2449	.002
298.15	101.325	.0118	.0008	.002	.3307	.002	.3091	.002
298.15	101.325	.0149	.0009	.002	.2652	.002	.3561	.002
298.15	101.325	.0181	.0011	.002	.1919	.002	.3674	.002
298.15	101.325	.0211	.0012	.002	.1256	.002	.3735	.002

System: acetophenone + butyric acid + water; phases: Liquid mixture 1, Liquid mixture 2
Property: Mole fraction of acetophenone (Liquid mixture 1); method: Chromatography
Property: Mole fraction of acetophenone (Liquid mixture 2); method: Chromatography
Property: Mole fraction of butyric acid (Liquid mixture 2); method: Chromatography
Temperature, K	Pressure, kPa	Mole fraction of butyric acid	Mole fraction of acetophenone	uncertainty	Mole fraction of acetophenone	uncertainty	Mole fraction of butyric acid	uncertainty
298.15	101.325	.0037	.0006	.002	.6768	.002	.0872	.002
298.15	101.325	.0067	.001	.002	.5636	.002	.1575	.002
298.15	101.325	.0092	.0011	.002	.4572	.002	.2168	.002
298.15	101.325	.0127	.0012	.002	.3702	.002	.2673	.002
298.15	101.325	.014	.0012	.002	.3046	.002	.3094	.002
298.15	101.325	.0171	.0014	.002	.2305	.002	.331	.002
298.15	101.325	.0221	.0016	.002	.1401	.002	.3377	.002

System: ethyl butanoate + butyric acid + water; phases: Liquid mixture 1, Liquid mixture 2
Property: Mole fraction of ethyl butanoate (Liquid mixture 1); method: Chromatography
Property: Mole fraction of ethyl butanoate (Liquid mixture 2); method: Chromatography
Property: Mole fraction of butyric acid (Liquid mixture 2); method: Chromatography
Temperature, K	Pressure, kPa	Mole fraction of butyric acid	Mole fraction of ethyl butanoate	uncertainty	Mole fraction of ethyl butanoate	uncertainty	Mole fraction of butyric acid	uncertainty
298.15	101.325	.0092	.0003	.002	.6381	.002	.1898	.002
298.15	101.325	.0129	.0005	.002	.5332	.002	.2624	.002
298.15	101.325	.0171	.0008	.002	.3994	.002	.3252	.002
298.15	101.325	.0206	.0012	.002	.2958	.002	.37	.002
298.15	101.325	.0231	.0013	.002	.2114	.002	.3739	.002
298.15	101.325	.0256	.0014	.002	.1501	.002	.3855	.002

System: butyric acid + ethyl pentanoate + water; phases: Liquid mixture 2, Liquid mixture 1
Property: Mole fraction of butyric acid (Liquid mixture 2); method: Chromatography
Property: Mole fraction of butyric acid (Liquid mixture 1); method: Chromatography
Property: Mole fraction of ethyl pentanoate (Liquid mixture 1); method: Chromatography
Temperature, K	Pressure, kPa	Mole fraction of ethyl pentanoate	Mole fraction of butyric acid	uncertainty	Mole fraction of butyric acid	uncertainty	Mole fraction of ethyl pentanoate	uncertainty
298.15	101.325	.7515	.1183	.002	.005	.002	.0003	.002
298.15	101.325	.5437	.2622	.002	.0112	.002	.0008	.002
298.15	101.325	.405	.3406	.002	.018	.002	.001	.002
298.15	101.325	.3215	.3797	.002	.0199	.002	.0011	.002
298.15	101.325	.2341	.4238	.002	.0241	.002	.0013	.002
298.15	101.325	.1505	.4285	.002	.0278	.002	.0014	.002
298.15	101.325	.0688	.3734	.002	.0344	.002	.0015	.002

System: diethyl 1,3-propanedioate + butyric acid + water; phases: Liquid mixture 1, Liquid mixture 2
Property: Mole fraction of diethyl 1,3-propanedioate (Liquid mixture 1); method: Chromatography
Property: Mole fraction of diethyl 1,3-propanedioate (Liquid mixture 2); method: Chromatography
Property: Mole fraction of butyric acid (Liquid mixture 2); method: Chromatography
Temperature, K	Pressure, kPa	Mole fraction of butyric acid	Mole fraction of diethyl 1,3-propanedioate	uncertainty	Mole fraction of diethyl 1,3-propanedioate	uncertainty	Mole fraction of butyric acid	uncertainty
298.15	101.325	.0051	.0025	.002	.5171	.002	.0902	.002
298.15	101.325	.009	.0027	.002	.4503	.002	.1596	.002
298.15	101.325	.0118	.0028	.002	.3574	.002	.2151	.002
298.15	101.325	.0142	.003	.002	.2723	.002	.2557	.002
298.15	101.325	.0169	.0032	.002	.2039	.002	.2967	.002
298.15	101.325	.0237	.0034	.002	.1174	.002	.3184	.002
