Measured thermophysical data. Absorption, desorption and spectroscopic investigation of sulfur dioxide in the binary system ethylene glycol + dimethyl sulfoxide
Source: Fluid Phase Equilib., 2015, 10.1016/j.fluid.2015.06.047
Compound 1: ethylene glycol, C2H6O2, purity 98%
Compound 2: dimethyl sulfoxide, C2H6OS, purity 98%
Compound 3: sulfur dioxide, O2S
Compound 4: nitrogen, N2

System: ethylene glycol + sulfur dioxide + nitrogen; phases: Gas, Liquid
Fixed: Pressure, kPa = 122.66
Fixed: Temperature, K = 298.15
Property: Volume fraction of sulfur dioxide (Gas); method: gas chromatography
Amount concentration (molarity), mol/dm3 of sulfur dioxide	Volume fraction of sulfur dioxide	uncertainty
.00127	.00008152	.000002038
.00198	.00023244	.000005811
.00229	.00029573	.00000739325
.00279	.00036599	.00000914975
.00314	.00046922	.0000117305
.0042	.0006128	.00001532
.00515	.00077346	.0000193365
.00582	.0008514	.000021285
.00628	.00095098	.0000237745

System: dimethyl sulfoxide + sulfur dioxide + nitrogen; phases: Gas, Liquid
Fixed: Pressure, kPa = 122.66
Fixed: Temperature, K = 298.15
Property: Volume fraction of sulfur dioxide (Gas); method: gas chromatography
Amount concentration (molarity), mol/dm3 of sulfur dioxide	Volume fraction of sulfur dioxide	uncertainty
.02697	.00015919	.00000397975
.03657	.00023965	.00000599125
.04803	.00030984	.000007746
.06321	.00043519	.00001087975
.08501	.00060287	.00001507175
.09881	.00069683	.00001742075
.11069	.00078518	.0000196295
.11941	.00084638	.0000211595
.13271	.00092581	.00002314525
.14682	.00103643	.00002591075
