Measured thermophysical data. Investigation on isobaric vapor liquid equilibrium for acetic  acid +water +methyl ethyl ketone + isopropyl acetate
Source: Fluid Phase Equilib., 2009, 10.1016/j.fluid.2009.03.008
Compound 1: ethanoic acid, C2H4O2
Compound 2: water, H2O
Compound 3: butanone, C4H8O
Compound 4: 1-methylethyl ethanoate, C5H10O2

System: ethanoic acid + water; phases: Liquid, Gas
Fixed: Pressure, kPa = 101.33
Property: Boiling temperature at pressure P, K (Liquid); method: Ebulliometric method (Recirculating still)
Mole fraction of ethanoic acid	Boiling temperature at pressure P, K	uncertainty
.0477	373.65	.1
.0683	373.8	.1
.0919	373.87	.1
.1157	373.97	.1
.2399	374.85	.1
.2588	375.05	.1
.3666	375.91	.1
.4385	376.45	.1
.4987	377.18	.1
.5456	377.82	.1
.5651	378.22	.1
.6485	379.51	.1
.716	381.07	.1
.7269	381.36	.1
.8422	384.66	.1
.8963	386.41	.1
.9394	388.28	.1

System: ethanoic acid + water; phases: Gas, Liquid
Fixed: Pressure, kPa = 101.33
Property: Mole fraction of ethanoic acid (Gas); method: Chromatography
Mole fraction of ethanoic acid	Mole fraction of ethanoic acid	uncertainty
.0477	.0252	.001
.0683	.0387	.001
.0919	.0555	.001
.1157	.0733	.001
.2399	.1759	.001
.2588	.1819	.001
.3666	.2735	.001
.4385	.3291	.001
.4987	.3777	.001
.5456	.4158	.001
.5651	.432	.001
.6485	.5031	.001
.716	.5761	.001
.7269	.5869	.001
.8422	.719	.001
.8963	.7967	.001
.9394	.8904	.001

System: ethanoic acid + butanone; phases: Liquid, Gas
Fixed: Pressure, kPa = 101.33
Property: Boiling temperature at pressure P, K (Liquid); method: Ebulliometric method (Recirculating still)
Mole fraction of ethanoic acid	Boiling temperature at pressure P, K	uncertainty
.0522	353.88	.1
.2015	356.59	.1
.3688	363.85	.1
.4102	364.14	.1
.4308	364.66	.1
.4478	365.2	.1
.4947	366.71	.1
.5432	368.6	.1
.5659	369.11	.1
.6073	370.2	.1
.6232	370.9	.1
.6515	371.86	.1
.6632	372.25	.1
.7391	375.46	.1
.7514	376.06	.1
.768	377.56	.1
.793	378.57	.1
.8127	379.66	.1
.8239	380.12	.1
.8583	382.25	.1
.8821	383.8	.1
.9376	386.96	.1
.9633	388.56	.1

System: ethanoic acid + butanone; phases: Gas, Liquid
Fixed: Pressure, kPa = 101.33
Property: Mole fraction of ethanoic acid (Gas); method: Chromatography
Mole fraction of ethanoic acid	Mole fraction of ethanoic acid	uncertainty
.0522	.0141	.001
.2015	.0371	.001
.3688	.1247	.001
.4102	.1601	.001
.4308	.1737	.001
.4478	.1857	.001
.4947	.2214	.001
.5432	.2636	.001
.5659	.2849	.001
.6073	.3273	.001
.6232	.345	.001
.6515	.3802	.001
.6632	.4023	.001
.7391	.5038	.001
.7514	.5252	.001
.768	.5516	.001
.793	.5824	.001
.8127	.6246	.001
.8239	.6471	.001
.8583	.7102	.001
.8821	.7525	.001
.9376	.8614	.001
.9633	.9173	.001

System: butanone + 1-methylethyl ethanoate; phases: Liquid, Gas
Fixed: Pressure, kPa = 101.33
Property: Boiling temperature at pressure P, K (Liquid); method: Ebulliometric method (Recirculating still)
Mole fraction of butanone	Boiling temperature at pressure P, K	uncertainty
.0814	360.22	.1
.152	359.47	.1
.2083	358.78	.1
.2533	358.32	.1
.3288	357.51	.1
.3839	357.06	.1
.4519	356.4	.1
.5105	355.97	.1
.5574	355.58	.1
.6011	355.24	.1
.6657	354.76	.1
.7013	354.56	.1
.731	354.34	.1
.7723	354.05	.1
.8189	353.74	.1
.8581	353.59	.1
.8997	353.33	.1
.9292	353.17	.1
.9471	353.04	.1

System: butanone + 1-methylethyl ethanoate; phases: Gas, Liquid
Fixed: Pressure, kPa = 101.33
Property: Mole fraction of butanone (Gas); method: Chromatography
Mole fraction of butanone	Mole fraction of butanone	uncertainty
.0814	.1114	.001
.152	.2002	.001
.2083	.2668	.001
.2533	.3178	.001
.3288	.4012	.001
.3839	.457	.001
.4519	.5273	.001
.5105	.5841	.001
.5574	.6271	.001
.6011	.6663	.001
.6657	.7221	.001
.7013	.751	.001
.731	.7773	.001
.7723	.8127	.001
.8189	.8513	.001
.8581	.8826	.001
.8997	.9174	.001
.9292	.9414	.001
.9471	.956	.001

System: ethanoic acid + butanone + water; phases: Liquid, Gas
Fixed: Pressure, kPa = 101.33
Property: Mole fraction of water (Liquid); method: Chromatography
Property: Mole fraction of ethanoic acid (Gas); method: Chromatography
Property: Mole fraction of water (Gas); method: Chromatography
Temperature, K	Mole fraction of ethanoic acid	Mole fraction of water	uncertainty	Mole fraction of ethanoic acid	uncertainty	Mole fraction of water	uncertainty
386.3	.9118	.0845	.001	.8313	.001	.159	.001
377.35	.6822	.2525	.001	.435	.001	.3681	.001
375.63	.5992	.3458	.001	.3398	.001	.4376	.001
375.33	.5447	.4104	.001	.3208	.001	.4963	.001
374.08	.4966	.449	.001	.2636	.001	.4997	.001
374.01	.5049	.4374	.001	.2649	.001	.4895	.001
373.61	.508	.4252	.001	.2562	.001	.4731	.001
371.93	.4788	.428	.001	.2165	.001	.4522	.001
370.44	.3879	.5203	.001	.1606	.001	.4802	.001
369.75	.3661	.5369	.001	.1427	.001	.4734	.001
369.07	.3474	.5489	.001	.1276	.001	.4644	.001
385.19	.8942	.0851	.001	.7869	.001	.1599	.001
368.32	.3446	.5366	.001	.1177	.001	.4442	.001
385.37	.8979	.0821	.001	.7939	.001	.1548	.001
384.21	.8824	.0759	.001	.751	.001	.1446	.001
383.78	.8761	.0745	.001	.7352	.001	.1422	.001
383.34	.8693	.0743	.001	.7191	.001	.1421	.001
381.73	.8405	.0792	.001	.6558	.001	.1503	.001
380.84	.8159	.1093	.001	.6151	.001	.1974	.001
378.94	.7531	.1765	.001	.5214	.001	.2871	.001
