Measured thermophysical data. Density measurements of compressed dipropyl, dibutyl, bis(2-ethylhexyl) adipates from (293 to 373 K) at pressures up to about 68 MPa
Source: Fluid Phase Equilib., 2014, 10.1016/j.fluid.2014.04.018
Compound 1: dipropyl adipate, C12H22O4, purity 99%
Compound 2: dibutyl adipate, C14H26O4, purity 99%
Compound 3: bis(2-ethylhexyl) adipate, C22H42O4, purity 99%

System: dipropyl adipate; phases: Liquid
Property: Mass density, kg/m3 (Liquid); method: Vibrating tube method
Temperature, K	Pressure, kPa	Mass density, kg/m3	uncertainty
293.15	100	979.3	1.9586
293.15	520	979.7	1.9594
293.15	1040	980	1.96
293.15	2530	981	1.962
293.15	5020	982.5	1.965
293.15	7510	984.1	1.9682
293.15	7530	984.2	1.9684
293.15	10010	985.7	1.9714
293.15	15050	988.9	1.9778
293.15	20010	991.8	1.9836
293.15	30030	997.7	1.9954
293.15	39800	1003.1	2.0062
293.15	50070	1008.4	2.0168
293.15	65000	1015.7	2.0314
303.15	100	970.3	1.9406
303.15	100	970.4	1.9408
303.15	500	970.7	1.9414
303.15	1010	971.1	1.9422
303.15	2510	972.1	1.9442
303.15	2510	972.1	1.9442
303.15	5000	973.8	1.9476
303.15	7510	975.5	1.951
303.15	10020	977.1	1.9542
303.15	15010	980.4	1.9608
303.15	20000	983.5	1.967
303.15	30010	989.6	1.9792
303.15	39800	995.2	1.9904
303.15	50010	1000.7	2.0014
303.15	64990	1008.3	2.0166
313.15	100	961.5	1.923
313.15	500	961.8	1.9236
313.15	1010	962.2	1.9244
313.15	2510	963.3	1.9266
313.15	5040	965.1	1.9302
313.15	7510	966.8	1.9336
313.15	10010	968.5	1.937
313.15	15000	971.9	1.9438
313.15	19980	975.2	1.9504
313.15	30000	981.6	1.9632
313.15	39810	987.4	1.9748
313.15	39800	987.4	1.9748
313.15	50060	993.2	1.9864
313.15	65000	1001	2.002
323.15	100	952.4	1.9048
323.15	500	952.8	1.9056
323.15	1010	953.2	1.9064
323.15	2530	954.3	1.9086
323.15	5020	956.2	1.9124
323.15	7510	958	1.916
323.15	7550	958.1	1.9162
323.15	10000	959.9	1.9198
323.15	15030	963.4	1.9268
323.15	20010	966.9	1.9338
323.15	30010	973.5	1.947
323.15	39820	979.5	1.959
323.15	50020	985.5	1.971
323.15	64990	993.7	1.9874
333.15	100	943.5	1.887
333.15	500	943.9	1.8878
333.15	1020	944.3	1.8886
333.15	2520	945.5	1.891
333.15	5010	947.5	1.895
333.15	7510	949.4	1.8988
333.15	7510	949.4	1.8988
333.15	10000	951.3	1.9026
333.15	15000	955.1	1.9102
333.15	20000	958.7	1.9174
333.15	30020	965.6	1.9312
333.15	39790	971.9	1.9438
333.15	50050	978.1	1.9562
333.15	65000	986.5	1.973
343.15	100	934.6	1.8692
343.15	520	935	1.87
343.15	1040	935.5	1.871
343.15	2540	936.7	1.8734
343.15	5020	938.8	1.8776
343.15	7520	940.8	1.8816
343.15	7510	940.8	1.8816
343.15	10020	942.8	1.8856
343.15	15000	946.7	1.8934
343.15	20030	950.6	1.9012
343.15	29580	957.4	1.9148
343.15	39860	964.3	1.9286
343.15	50020	970.7	1.9414
343.15	65000	979.4	1.9588
353.15	100	925.7	1.8514
353.15	510	926.1	1.8522
353.15	1020	926.5	1.853
353.15	2530	927.9	1.8558
353.15	5020	930.1	1.8602
353.15	7510	932.2	1.8644
353.15	7530	932.2	1.8644
353.15	10000	934.3	1.8686
353.15	14550	938	1.876
353.15	20020	942.3	1.8846
353.15	30010	949.8	1.8996
353.15	39800	956.7	1.9134
353.15	49990	963.4	1.9268
353.15	64990	972.4	1.9448
363.15	100	916.7	1.8334
363.15	500	917.2	1.8344
363.15	980	917.6	1.8352
363.15	2520	919.1	1.8382
363.15	5000	921.3	1.8426
363.15	7480	923.6	1.8472
363.15	7480	923.6	1.8472
363.15	10020	925.8	1.8516
363.15	15020	930.1	1.8602
363.15	20020	934.2	1.8684
363.15	30020	942	1.884
363.15	39810	949.1	1.8982
363.15	50050	956.1	1.9122
363.15	64970	965.4	1.9308
303.15	100	970.4	1.9408
303.15	510	970.7	1.9414
303.15	5030	973.8	1.9476
303.15	10010	977.1	1.9542
303.15	30000	989.6	1.9792
303.15	65010	1008.3	2.0166

System: dibutyl adipate; phases: Liquid
Property: Mass density, kg/m3 (Liquid); method: Vibrating tube method
Temperature, K	Pressure, kPa	Mass density, kg/m3	uncertainty
293.15	100	960.6	1.9212
293.15	100	960.6	1.9212
293.15	2510	962.2	1.9244
293.15	2510	962.2	1.9244
293.15	4990	963.7	1.9274
293.15	7510	965.3	1.9306
293.15	9990	966.9	1.9338
293.15	15010	969.9	1.9398
293.15	20000	972.9	1.9458
293.15	29990	978.6	1.9572
293.15	39800	983.9	1.9678
293.15	50020	989.1	1.9782
293.15	68080	997.3	1.9946
313.15	100	943.7	1.8874
313.15	2500	945.4	1.8908
313.15	2500	945.4	1.8908
313.15	5020	947.2	1.8944
313.15	7510	948.9	1.8978
313.15	9990	950.5	1.901
313.15	15000	953.9	1.9078
313.15	20000	957.1	1.9142
313.15	30010	963.3	1.9266
313.15	39810	969	1.938
313.15	50000	974.6	1.9492
313.15	67990	983.8	1.9676
333.15	100	926.8	1.8536
333.15	2500	928.7	1.8574
333.15	2500	928.7	1.8574
333.15	5010	930.6	1.8612
333.15	7520	932.5	1.865
333.15	10010	934.3	1.8686
333.15	15040	938	1.876
333.15	20000	941.4	1.8828
333.15	30030	948.2	1.8964
333.15	39800	954.3	1.9086
333.15	50030	960.4	1.9208
333.15	68030	970.2	1.9404
353.15	100	909.9	1.8198
353.15	2510	912	1.824
353.15	2510	912	1.824
353.15	5000	914.1	1.8282
353.15	7530	916.2	1.8324
353.15	10010	918.2	1.8364
353.15	15000	922.2	1.8444
353.15	20000	926	1.852
353.15	30010	933.3	1.8666
353.15	39840	939.9	1.8798
353.15	49990	946.4	1.8928
353.15	67990	956.9	1.9138
373.15	100	893	1.786
373.15	2490	895.3	1.7906
373.15	2500	895.3	1.7906
373.15	5020	897.6	1.7952
373.15	7510	899.9	1.7998
373.15	10010	902.1	1.8042
373.15	15010	906.5	1.813
373.15	19980	910.6	1.8212
373.15	30010	918.5	1.837
373.15	39810	925.7	1.8514
373.15	50000	932.6	1.8652
373.15	68010	943.8	1.8876
293.15	100	960.6	1.9212
293.15	10000	966.9	1.9338
293.15	5000	963.7	1.9274
293.15	20000	972.9	1.9458
293.15	39860	983.8	1.9676
293.15	68090	997.7	1.9954

System: bis(2-ethylhexyl) adipate; phases: Liquid
Property: Mass density, kg/m3 (Liquid); method: Vibrating tube method
Temperature, K	Pressure, kPa	Mass density, kg/m3	uncertainty
293.15	100	925.4	1.8508
293.15	2510	926.9	1.8538
293.15	5000	928.4	1.8568
293.15	5010	928.4	1.8568
293.15	7550	929.9	1.8598
293.15	10010	931.3	1.8626
293.15	15040	934.2	1.8684
293.15	20020	937	1.874
293.15	30030	942.4	1.8848
293.15	40010	947.4	1.8948
293.15	50020	952.3	1.9046
293.15	68030	960.4	1.9208
313.15	100	910.3	1.8206
313.15	2530	911.9	1.8238
313.15	2540	911.9	1.8238
313.15	5020	913.5	1.827
313.15	7540	915.2	1.8304
313.15	10010	916.7	1.8334
313.15	15010	919.8	1.8396
313.15	20000	922.8	1.8456
313.15	30030	928.7	1.8574
313.15	40020	934.1	1.8682
313.15	50010	939.3	1.8786
313.15	68050	947.9	1.8958
333.15	100	895.3	1.7906
333.15	2500	897.1	1.7942
333.15	2500	897.1	1.7942
333.15	5000	898.8	1.7976
333.15	7480	900.6	1.8012
333.15	9990	902.3	1.8046
333.15	14990	905.7	1.8114
333.15	19970	908.9	1.8178
333.15	30010	915.2	1.8304
333.15	39990	921	1.842
333.15	50020	926.6	1.8532
333.15	68010	935.8	1.8716
353.15	100	880.4	1.7608
353.15	2510	882.3	1.7646
353.15	2500	882.3	1.7646
353.15	5000	884.2	1.7684
353.15	7510	886.1	1.7722
353.15	10000	888	1.776
353.15	15010	891.7	1.7834
353.15	20020	895.2	1.7904
353.15	30030	902	1.804
353.15	40020	908.2	1.8164
353.15	50010	914.1	1.8282
353.15	68010	923.9	1.8478
373.15	100	865.4	1.7308
373.15	2510	867.5	1.735
373.15	2510	867.5	1.735
373.15	5020	869.7	1.7394
373.15	7510	871.7	1.7434
373.15	10010	873.8	1.7476
373.15	14990	877.8	1.7556
373.15	20000	881.6	1.7632
373.15	30010	888.9	1.7778
373.15	40000	895.6	1.7912
373.15	50010	901.9	1.8038
373.15	68000	912.3	1.8246
293.15	100	925.4	1.8508
293.15	5000	928.3	1.8566
293.15	10020	931.3	1.8626
293.15	20020	937	1.874
293.15	40020	947.4	1.8948
293.15	68030	960.3	1.9206
