Measured thermophysical data. The liquid-liquid phase separation and crystallization of vanillin in 1-propanol/water solution
Source: Fluid Phase Equilib., 2016, 10.1016/j.fluid.2015.09.011
Compound 1: vanillin, C8H8O3, purity 99%
Compound 2: 1-propanol, C3H8O, purity 99.8%
Compound 3: water, H2O, purity 99.8%

System: 1-propanol + vanillin + water; phases: Liquid, Crystal
Fixed: Pressure, kPa = 100
Property: Mole fraction of vanillin (Liquid); method: Gravimetric
Temperature, K	Solvent: Mass fraction of water	Mole fraction of vanillin	uncertainty
288.15	0	.0893	.007144
288.15	.3	.1346	.010768
288.15	.5	.0824	.006592
288.15	.6	.0458	.003664
288.15	.7	.0283	.002264
288.15	.8	.0102	.000816
288.15	.9	.0023	.000184
288.15	1	.0008	.000064
298.15	0	.145	.0116
298.15	.1	.1929	.015432
298.15	.3	.2024	.016192
298.15	.5	.1491	.011928
298.15	.6	.1143	.009144
298.15	.7	.0572	.004576
298.15	.8	.0263	.002104
298.15	1	.0012	.000096
301.65	0	.1646	.013168
301.65	.1	.201	.01608
301.65	.2	.2188	.017504
301.65	.3	.2201	.017608
301.65	.5	.1652	.013216
301.65	.7	.0792	.006336
303.15	0	.1851	.014808
303.15	.1	.2315	.01852
303.15	.3	.2392	.019136
303.15	.5	.1928	.015424
303.15	.6	.1521	.012168
303.15	.7	.0899	.007192
308.15	0	.2356	.018848
308.15	.1	.2826	.022608
308.15	.3	.2936	.023488
308.15	.5	.2611	.020888
308.15	.6	.2147	.017176
308.15	.7	.1818	.014544
308.15	.8	.0985	.00788

System: 1-propanol + vanillin + water; phases: Liquid mixture 1, Liquid mixture 2
Fixed: Pressure, kPa = 100
Property: Mole fraction of water (Liquid mixture 1); method: Titration method
Temperature, K	Mole fraction of vanillin	Mole fraction of water	uncertainty
301.65	.9196	.0228	.001824
301.65	.8117	.0831	.006648
301.65	.7447	.1383	.011064
301.65	.686	.2173	.017384
301.65	.6553	.2839	.022712
303.15	.9233	.0255	.00204
303.15	.8402	.0699	.005592
303.15	.7811	.1572	.012576
303.15	.7227	.194	.01552
303.15	.6941	.2448	.019584
303.15	.6732	.2954	.023632
308.15	.9305	.0231	.001848
308.15	.8608	.0655	.00524
308.15	.8304	.0985	.00788
308.15	.7782	.1552	.012416
308.15	.7542	.1967	.015736
313.15	.8118	.1714	.013712
313.15	.8594	.1048	.008384
313.15	.9174	.0503	.004024
