Measured thermophysical data. Separation of 2-propanol and water azeotropic system using ionic liquids as entrainers
Source: Fluid Phase Equilib., 2016, 10.1016/j.fluid.2015.11.034
Compound 1: 2-propanol, C3H8O, purity 99.7%
Compound 2: 1-ethyl-3-methylimidazolium acetate, C8H14N2O2
Compound 3: 1-butyl-3-methylimidazolium acetate, C10H18N2O2
Compound 4: 1-ethyl-3-methylimidazolium bromide, C6H11BrN2
Compound 5: water, H2O, purity 99.8%

System: 2-propanol + water; phases: Liquid, Gas
Fixed: Pressure, kPa = 101.3
Property: Boiling temperature at pressure P, K (Liquid); method: Ebulliometric method (Recirculating still)
Mole fraction of 2-propanol	Boiling temperature at pressure P, K	uncertainty
.023	365.42	
.049	358.73	
.078	356.22	
.126	354.91	
.248	354.34	
.373	354.15	
.448	353.82	
.562	353.43	
.625	353.36	
.675	353.32	
.747	353.45	
.825	353.76	
.865	353.88	
.948	354.65	

System: 2-propanol + water; phases: Gas, Liquid
Fixed: Pressure, kPa = 101.3
Property: Mole fraction of 2-propanol (Gas); method: Chromatography
Mole fraction of 2-propanol	Mole fraction of 2-propanol	uncertainty
.023	.307	
.049	.433	
.078	.502	
.126	.522	
.248	.544	
.373	.554	
.448	.574	
.562	.624	
.625	.645	
.675	.674	
.747	.71	
.825	.79	
.865	.831	
.948	.928	

System: 2-propanol + water + 1-ethyl-3-methylimidazolium acetate; phases: Liquid, Gas
Fixed: Pressure, kPa = 101.3
Property: Mole fraction of water (Liquid); method: Chromatography
Property: Mole fraction of 2-propanol (Gas); method: Chromatography
Property: Mole fraction of water (Gas); method: Chromatography
Temperature, K	Mole fraction of 2-propanol	Mole fraction of water	uncertainty	Mole fraction of 2-propanol	uncertainty	Mole fraction of water	uncertainty
357.08	.876	0	.001	1	.001	0	.001
358.74	.728	.078	.001	.962	.001	.038	.001
358.58	.666	.134	.001	.941	.001	.059	.001
356.67	.858	.021	.001	.977	.001	.023	.001
358.77	.572	.228	.001	.906	.001	.094	.001
359.97	.478	.326	.001	.866	.001	.134	.001
361.53	.392	.414	.001	.825	.001	.175	.001
363.35	.324	.48	.001	.785	.001	.215	.001
365.54	.218	.59	.001	.688	.001	.312	.001
367.51	.16	.648	.001	.609	.001	.391	.001
370.43	.128	.68	.001	.55	.001	.45	.001
360.08	.34	.533	.001	.745	.001	.255	.001
372.73	.08	.729	.001	.424	.001	.576	.001
375.53	.043	.764	.001	.282	.001	.718	.001
376.28	0	.787	.001	0	.001	1	.001
356.37	.796	.081	.001	.937	.001	.063	.001
359.77	.684	0	.001	1	.001	0	.001
359.73	.667	.047	.001	.985	.001	.015	.001
359.67	.634	.078	.001	.976	.001	.024	.001
359.75	.581	.128	.001	.96	.001	.04	.001
360.02	.524	.187	.001	.941	.001	.059	.001
360.55	.481	.227	.001	.927	.001	.073	.001
362.38	.263	.611	.001	.686	.001	.314	.001
361.32	.439	.265	.001	.913	.001	.087	.001
362.82	.381	.323	.001	.887	.001	.113	.001
366.65	.298	.404	.001	.837	.001	.163	.001
369.37	.225	.478	.001	.777	.001	.223	.001
356.04	.726	.147	.001	.907	.001	.093	.001
371.14	.185	.519	.001	.729	.001	.271	.001
373.04	.153	.548	.001	.683	.001	.317	.001
375.96	.09	.61	.001	.54	.001	.46	.001
377.16	.06	.64	.001	.429	.001	.571	.001
379.25	0	.701	.001	0	.001	1	.001
364.16	.2	.674	.001	.619	.001	.381	.001
355.66	.627	.249	.001	.866	.001	.134	.001
355.84	.569	.304	.001	.849	.001	.151	.001
356.14	.485	.389	.001	.816	.001	.184	.001
357.17	.427	.449	.001	.789	.001	.211	.001
358.67	.366	.51	.001	.758	.001	.242	.001
366.56	.136	.744	.001	.516	.001	.484	.001
369.95	.046	.845	.001	.257	.001	.743	.001
373.55	0	.888	.001	0	.001	1	.001
360.26	.798	0	.001	1	.001	0	.001
359.03	.78	.013	.001	.992	.001	.008	.001

System: 2-propanol + water + 1-butyl-3-methylimidazolium acetate; phases: Liquid, Gas
Fixed: Pressure, kPa = 101.3
Property: Mole fraction of water (Liquid); method: Chromatography
Property: Mole fraction of 2-propanol (Gas); method: Chromatography
Property: Mole fraction of water (Gas); method: Chromatography
Temperature, K	Mole fraction of 2-propanol	Mole fraction of water	uncertainty	Mole fraction of 2-propanol	uncertainty	Mole fraction of water	uncertainty
356.84	.898	0	.001	1	.001	0	.001
358.82	.253	.633	.001	.642	.001	.358	.001
359.82	.218	.666	.001	.606	.001	.394	.001
360.94	.162	.725	.001	.526	.001	.474	.001
363.9	.074	.812	.001	.331	.001	.669	.001
365.91	.037	.848	.001	.2	.001	.8	.001
373.15	0	.88	.001	0	.001	1	.001
357.76	.764	0	.001	1	.001	0	.001
357.55	.686	.082	.001	.949	.001	.051	.001
357.25	.617	.149	.001	.916	.001	.084	.001
357.31	.557	.208	.001	.888	.001	.112	.001
355.68	.741	.147	.001	.875	.001	.125	.001
357.34	.471	.291	.001	.847	.001	.153	.001
357.55	.439	.33	.001	.827	.001	.173	.001
358.06	.379	.389	.001	.792	.001	.208	.001
359.12	.333	.437	.001	.759	.001	.241	.001
361.03	.276	.492	.001	.712	.001	.288	.001
362.24	.23	.536	.001	.665	.001	.335	.001
363.13	.191	.579	.001	.613	.001	.387	.001
365.12	.174	.596	.001	.586	.001	.414	.001
367.14	.141	.628	.001	.529	.001	.471	.001
368.57	.097	.668	.001	.428	.001	.572	.001
355.64	.668	.217	.001	.846	.001	.154	.001
372.63	.056	.71	.001	.295	.001	.705	.001
374.35	.03	.736	.001	.182	.001	.818	.001
377.25	0	.767	.001	0	.001	1	.001
356.84	.659	0	.001	1	.001	0	.001
355.94	.608	.049	.001	.976	.001	.024	.001
355.68	.567	.093	.001	.955	.001	.045	.001
355.64	.506	.156	.001	.925	.001	.075	.001
355.66	.468	.191	.001	.907	.001	.093	.001
355.86	.435	.227	.001	.887	.001	.113	.001
356.18	.374	.285	.001	.851	.001	.149	.001
355.66	.58	.308	.001	.814	.001	.186	.001
356.64	.315	.343	.001	.807	.001	.193	.001
357.24	.273	.386	.001	.768	.001	.232	.001
358.01	.204	.453	.001	.687	.001	.313	.001
358.82	.174	.483	.001	.643	.001	.357	.001
359.82	.126	.532	.001	.545	.001	.455	.001
363	.087	.574	.001	.439	.001	.561	.001
364.64	0	.664	.001	0	.001	1	.001
355.86	.484	.398	.001	.781	.001	.219	.001
356.18	.426	.455	.001	.756	.001	.244	.001
356.64	.385	.497	.001	.734	.001	.266	.001
357.24	.325	.558	.001	.7	.001	.3	.001
358.01	.289	.591	.001	.675	.001	.325	.001

System: 2-propanol + water + 1-ethyl-3-methylimidazolium bromide; phases: Liquid, Gas
Fixed: Pressure, kPa = 101.3
Property: Mole fraction of water (Liquid); method: Chromatography
Property: Mole fraction of 2-propanol (Gas); method: Chromatography
Property: Mole fraction of water (Gas); method: Chromatography
Temperature, K	Mole fraction of 2-propanol	Mole fraction of water	uncertainty	Mole fraction of 2-propanol	uncertainty	Mole fraction of water	uncertainty
355.24	.884	0	.001	1	.001	0	.001
357.1	.364	.52	.001	.724	.001	.276	.001
360	.288	.594	.001	.681	.001	.319	.001
362.1	.208	.678	.001	.608	.001	.392	.001
364.47	.159	.726	.001	.544	.001	.456	.001
368.3	.101	.787	.001	.432	.001	.568	.001
369.05	.076	.82	.001	.361	.001	.639	.001
369.45	.046	.84	.001	.258	.001	.742	.001
371.45	.02	.865	.001	.133	.001	.867	.001
372.22	0	.884	.001	0	.001	1	.001
357.21	.801	0	.001	1	.001	0	.001
354.95	.854	.033	.001	.938	.001	.062	.001
356.1	.746	.056	.001	.939	.001	.061	.001
355.85	.686	.111	.001	.911	.001	.089	.001
355.83	.645	.147	.001	.893	.001	.107	.001
355.57	.57	.221	.001	.862	.001	.138	.001
355.5	.496	.303	.001	.829	.001	.171	.001
355.36	.416	.378	.001	.8	.001	.2	.001
355.58	.37	.426	.001	.778	.001	.222	.001
356.45	.313	.481	.001	.748	.001	.252	.001
357.86	.203	.591	.001	.656	.001	.344	.001
360.04	.15	.644	.001	.583	.001	.417	.001
354.37	.784	.099	.001	.876	.001	.124	.001
362.22	.088	.707	.001	.446	.001	.554	.001
364.25	.055	.736	.001	.338	.001	.662	.001
367.15	.032	.761	.001	.226	.001	.774	.001
368.24	0	.795	.001	0	.001	1	.001
356.82	.692	0	.001	1	.001	0	.001
356.43	.659	.04	.001	.98	.001	.02	.001
356.76	.61	.088	.001	.955	.001	.045	.001
357.05	.538	.16	.001	.919	.001	.081	.001
357.1	.455	.235	.001	.888	.001	.112	.001
357.77	.37	.326	.001	.844	.001	.156	.001
354.1	.736	.153	.001	.842	.001	.158	.001
358.57	.284	.412	.001	.793	.001	.207	.001
360	.224	.473	.001	.743	.001	.257	.001
361.7	.18	.513	.001	.695	.001	.305	.001
363.74	.132	.565	.001	.616	.001	.384	.001
365.57	.097	.601	.001	.537	.001	.463	.001
367.56	.051	.645	.001	.374	.001	.626	.001
371.26	.013	.683	.001	.126	.001	.874	.001
372.55	0	.696	.001	0	.001	1	.001
353.74	.654	.231	.001	.817	.001	.183	.001
353.95	.614	.276	.001	.804	.001	.196	.001
353.97	.562	.328	.001	.79	.001	.21	.001
354.7	.513	.371	.001	.78	.001	.22	.001
355.56	.454	.434	.001	.759	.001	.241	.001
