Measured thermophysical data. Densities and derived thermodynamic properties of ternary mixtures 1-butyl-3-methyl-imidazolium tetrafluoroborate + ethanol + water at seven pressures and two temperatures
Source: Fluid Phase Equilib., 2010, 10.1016/j.fluid.2010.03.039
Compound 1: 1-butyl-3-methylimidazolium tetrafluoroborate, C8H15BF4N2
Compound 2: ethanol, C2H6O
Compound 3: water, H2O, purity 99.8%

System: 1-butyl-3-methylimidazolium tetrafluoroborate; phases: Liquid
Property: Mass density, kg/m3 (Liquid); method: Vibrating tube method
Pressure, kPa	Temperature, K	Mass density, kg/m3	uncertainty
100	298.15	1201.2	1
100	323.158	1183.4	1
5000	298.15	1203.5	1
5000	323.158	1185.9	1
10000	298.15	1205.9	1
10000	323.158	1188.5	1
15000	298.15	1208.3	1
15000	323.158	1191	1
20000	298.15	1210.6	1
20000	323.158	1193.6	1
25000	298.15	1213	1
25000	323.158	1196.1	1
30000	298.15	1215.4	1
30000	323.158	1198.6	1

System: ethanol + water + 1-butyl-3-methylimidazolium tetrafluoroborate; phases: Liquid
Fixed: Temperature, K = 298.15
Property: Mass density, kg/m3 (Liquid); method: Vibrating tube method
Mole fraction of 1-butyl-3-methylimidazolium tetrafluoroborate	Mole fraction of ethanol	Pressure, kPa	Mass density, kg/m3	uncertainty
.7556	.2444	100	1166.8	.5
.5906	.191	100	1161.7	.5
.4478	.1449	100	1154.9	.5
.3013	.0975	100	1142.2	.5
.1504	.0487	100	1113.7	.5
.0739	.0239	100	1080.8	.5
.7556	.2444	5000	1169.5	.5
.5906	.191	5000	1164.2	.5
.4478	.1449	5000	1157.2	.5
.3013	.0975	5000	1144.6	.5
.1504	.0487	5000	1115.9	.5
.0739	.0239	5000	1083	.5
.7556	.2444	10000	1172.1	.5
.5906	.191	10000	1166.7	.5
.4478	.1449	10000	1159.9	.5
.3013	.0975	10000	1147	.5
.1504	.0487	10000	1118.3	.5
.0739	.0239	10000	1085.2	.5
.7556	.2444	15000	1174.6	.5
.5906	.191	15000	1169.2	.5
.4478	.1449	15000	1162.3	.5
.3013	.0975	15000	1149.4	.5
.1504	.0487	15000	1120.6	.5
.0739	.0239	15000	1087.4	.5
.7556	.2444	20000	1177	.5
.5906	.191	20000	1171.6	.5
.4478	.1449	20000	1164.7	.5
.3013	.0975	20000	1151.7	.5
.1504	.0487	20000	1122.8	.5
.0739	.0239	20000	1089.5	.5
.7556	.2444	25000	1179.5	.5
.5906	.191	25000	1174	.5
.4478	.1449	25000	1167.1	.5
.3013	.0975	25000	1154	.5
.1504	.0487	25000	1125	.5
.0739	.0239	25000	1091.7	.5
.7556	.2444	30000	1181.9	.5
.5906	.191	30000	1176.4	.5
.4478	.1449	30000	1169.4	.5
.3013	.0975	30000	1156.3	.5
.1504	.0487	30000	1127.1	.5
.0739	.0239	30000	1093.8	.5
.5617	.4383	100	1123.9	.5
.4265	.3332	100	1121.1	.5
.2351	.1837	100	1108.2	.5
.1141	.0892	100	1085.4	.5
.0539	.0421	100	1059.2	.5
.5617	.4383	5000	1126.6	.5
.4265	.3332	5000	1123.8	.5
.2351	.1837	5000	1110.7	.5
.1141	.0892	5000	1087.7	.5
.0539	.0421	5000	1061.4	.5
.5617	.4383	10000	1129.4	.5
.4265	.3332	10000	1126.4	.5
.2351	.1837	10000	1113.2	.5
.1141	.0892	10000	1090	.5
.0539	.0421	10000	1063	.5
.5617	.4383	15000	1132.1	.5
.4265	.3332	15000	1128.9	.5
.2351	.1837	15000	1115.6	.5
.1141	.0892	15000	1092.2	.5
.0539	.0421	15000	1065.7	.5
.5617	.4383	20000	1134.8	.5
.4265	.3332	20000	1131.5	.5
.2351	.1837	20000	1118	.5
.1141	.0892	20000	1094.5	.5
.0539	.0421	20000	1067.8	.5
.5617	.4383	25000	1137.4	.5
.4265	.3332	25000	1134	.5
.2351	.1837	25000	1120.4	.5
.1141	.0892	25000	1096.7	.5
.0539	.0421	25000	1070.1	.5
.5617	.4383	30000	1140	.5
.4265	.3332	30000	1136.5	.5
.2351	.1837	30000	1122.7	.5
.1141	.0892	30000	1099	.5
.0539	.0421	30000	1072.2	.5
.2533	.7467	100	1010.3	.5
.2037	.6004	100	1015	.5
.1312	.3867	100	1020	.5
.0659	.1942	100	1021.4	.5
.0383	.1129	100	1019.6	.5
.0148	.0436	100	1010.3	.5
.2533	.7467	5000	1013.6	.5
.2037	.6004	5000	1018.1	.5
.1312	.3867	5000	1022.8	.5
.0659	.1942	5000	1023.9	.5
.0383	.1129	5000	1021.7	.5
.0148	.0436	5000	1012.5	.5
.2533	.7467	10000	1016.8	.5
.2037	.6004	10000	1021.2	.5
.1312	.3867	10000	1025.5	.5
.0659	.1942	10000	1026.3	.5
.0383	.1129	10000	1023.9	.5
.0148	.0436	10000	1014.6	.5
.2533	.7467	15000	1020	.5
.2037	.6004	15000	1024.1	.5
.1312	.3867	15000	1028.3	.5
.0659	.1942	15000	1028.6	.5
.0383	.1129	15000	1026	.5
.0148	.0436	15000	1016.7	.5
.2533	.7467	20000	1023	.5
.2037	.6004	20000	1027.1	.5
.1312	.3867	20000	1030.9	.5
.0659	.1942	20000	1031	.5
.0383	.1129	20000	1028.1	.5
.0148	.0436	20000	1018.8	.5
.2533	.7467	25000	1026	.5
.2037	.6004	25000	1029.9	.5
.1312	.3867	25000	1033.5	.5
.0659	.1942	25000	1033.3	.5
.0383	.1129	25000	1030.2	.5
.0148	.0436	25000	1020.9	.5
.2533	.7467	30000	1028.9	.5
.2037	.6004	30000	1032.6	.5
.1312	.3867	30000	1036	.5
.0659	.1942	30000	1035.5	.5
.0383	.1129	30000	1032.3	.5
.0148	.0436	30000	1023	.5

System: ethanol + water + 1-butyl-3-methylimidazolium tetrafluoroborate; phases: Liquid
Fixed: Temperature, K = 323.15
Property: Mass density, kg/m3 (Liquid); method: Vibrating tube method
Mole fraction of 1-butyl-3-methylimidazolium tetrafluoroborate	Mole fraction of ethanol	Pressure, kPa	Mass density, kg/m3	uncertainty
.7556	.2444	100	1147.2	.5
.5906	.191	100	1141.7	.5
.4478	.1449	100	1134.6	.5
.3013	.0975	100	1121.7	.5
.1504	.0487	100	1093.6	.5
.0739	.0239	100	1062.7	.5
.5617	.4383	100	1103.5	.5
.4265	.3332	100	1100.1	.5
.2351	.1837	100	1087.3	.5
.1141	.0892	100	1065.2	.5
.0539	.0421	100	1041.4	.5
.2533	.7467	100	989.5	.5
.2037	.6004	100	993.5	.5
.1312	.3867	100	998	.5
.0659	.1942	100	1000.5	.5
.0383	.1129	100	1000.3	.5
.0148	.0436	100	996.2	.5
.7556	.2444	5000	1149.9	.5
.5906	.191	5000	1144.5	.5
.4478	.1449	5000	1137.3	.5
.3013	.0975	5000	1124.5	.5
.1504	.0487	5000	1096.1	.5
.0739	.0239	5000	1064.9	.5
.5617	.4383	5000	1106.6	.5
.4265	.3332	5000	1103.3	.5
.2351	.1837	5000	1090	.5
.1141	.0892	5000	1067.8	.5
.0539	.0421	5000	1043.8	.5
.2533	.7467	5000	993	.5
.2037	.6004	5000	996.9	.5
.1312	.3867	5000	1001	.5
.0659	.1942	5000	1003.2	.5
.0383	.1129	5000	1002.7	.5
.0148	.0436	5000	998.9	.5
.7556	.2444	10000	1152.7	.5
.5906	.191	10000	1147.1	.5
.4478	.1449	10000	1140	.5
.3013	.0975	10000	1127	.5
.1504	.0487	10000	1098.5	.5
.0739	.0239	10000	1067.3	.5
.5617	.4383	10000	1109.6	.5
.4265	.3332	10000	1106.2	.5
.2351	.1837	10000	1092.5	.5
.1141	.0892	10000	1068.4	.5
.0539	.0421	10000	1046.2	.5
.2533	.7467	10000	996.6	.5
.2037	.6004	10000	1000.3	.5
.1312	.3867	10000	1004.1	.5
.0659	.1942	10000	1005.7	.5
.0383	.1129	10000	1005.1	.5
.0148	.0436	10000	1001.1	.5
.7556	.2444	15000	1155.4	.5
.5906	.191	15000	1149.7	.5
.4478	.1449	15000	1142.7	.5
.3013	.0975	15000	1129.4	.5
.1504	.0487	15000	1101	.5
.0739	.0239	15000	1069.6	.5
.5617	.4383	15000	1112.5	.5
.4265	.3332	15000	1109.1	.5
.2351	.1837	15000	1095.2	.5
.1141	.0892	15000	1072.8	.5
.0539	.0421	15000	1048.4	.5
.2533	.7467	15000	1000.1	.5
.2037	.6004	15000	1003.5	.5
.1312	.3867	15000	1007	.5
.0659	.1942	15000	1008.3	.5
.0383	.1129	15000	1007.5	.5
.0148	.0436	15000	1003.3	.5
.7556	.2444	20000	1158.1	.5
.5906	.191	20000	1152.4	.5
.4478	.1449	20000	1145.2	.5
.3013	.0975	20000	1131.9	.5
.1504	.0487	20000	1103.4	.5
.0739	.0239	20000	1071.9	.5
.5617	.4383	20000	1115.4	.5
.4265	.3332	20000	1111.8	.5
.2351	.1837	20000	1097.7	.5
.1141	.0892	20000	1075.2	.5
.0539	.0421	20000	1050.7	.5
.2533	.7467	20000	1003.1	.5
.2037	.6004	20000	1006.7	.5
.1312	.3867	20000	1009.9	.5
.0659	.1942	20000	1010.8	.5
.0383	.1129	20000	1009.8	.5
.0148	.0436	20000	1005.5	.5
.7556	.2444	25000	1160.7	.5
.5906	.191	25000	1154.9	.5
.4478	.1449	25000	1147.8	.5
.3013	.0975	25000	1134.4	.5
.1504	.0487	25000	1105.7	.5
.0739	.0239	25000	1074	.5
.5617	.4383	25000	1118.2	.5
.4265	.3332	25000	1114.5	.5
.2351	.1837	25000	1100.3	.5
.1141	.0892	25000	1077.6	.5
.0539	.0421	25000	1053	.5
.2533	.7467	25000	1006.3	.5
.2037	.6004	25000	1009.8	.5
.1312	.3867	25000	1012.7	.5
.0659	.1942	25000	1013.3	.5
.0383	.1129	25000	1012	.5
.0148	.0436	25000	1007.7	.5
.7556	.2444	30000	1163.2	.5
.5906	.191	30000	1157.4	.5
.3013	.0975	30000	1136.8	.5
.1504	.0487	30000	1108.1	.5
.0739	.0239	30000	1076.3	.5
.5617	.4383	30000	1120.9	.5
.4265	.3332	30000	1117.1	.5
.2351	.1837	30000	1102.8	.5
.1141	.0892	30000	1080	.5
.0539	.0421	30000	1055.3	.5
.2533	.7467	30000	1009.5	.5
.2037	.6004	30000	1012.8	.5
.1312	.3867	30000	1015.5	.5
.0659	.1942	30000	1015.7	.5
.0383	.1129	30000	1014.3	.5
.0148	.0436	30000	1009.8	.5
