Measured thermophysical data. Ternary phase diagrams of CdSO4-NiSO4-H2O at 40deg C and 80deg C
Source: Fluid Phase Equilib., 2014, 10.1016/j.fluid.2014.08.023
Compound 1: cadmium sulfate, CdO4S, purity 99%
Compound 2: nickel sulfate (1:1), NiO4S, purity 99%
Compound 3: water, H2O, purity 99.9%

System: water + nickel sulfate (1:1) + cadmium sulfate; phases: Liquid, Crystal of intercomponent compound 1
Fixed: Pressure, kPa = 101
Property: Mass fraction of nickel sulfate (1:1) (Liquid); method: ICP-OES
Temperature, K	Mass fraction of cadmium sulfate	Mass fraction of nickel sulfate (1:1)	uncertainty
313.15	0	.324	.000972
313.15	.0304	.307	.000921
313.15	.0608	.2914	.0008742
313.15	.0856	.2761	.0008283
313.15	.1088	.2619	.0007857
313.15	.1347	.2492	.0007476
313.15	.1653	.2338	.0007014
313.15	.1918	.2205	.0006615
313.15	.2476	.1949	.0005847
353.15	0	.398	.001194
353.15	.0242	.3871	.0011613
353.15	.0509	.3752	.0011256
353.15	.0697	.3644	.0010932
353.15	.0878	.3543	.0010629
353.15	.1074	.3445	.0010335
353.15	.1235	.3366	.0010098

System: water + nickel sulfate (1:1) + cadmium sulfate; phases: Liquid, Crystal of intercomponent compound 2
Fixed: Pressure, kPa = 101
Property: Mass fraction of nickel sulfate (1:1) (Liquid); method: ICP-OES
Temperature, K	Mass fraction of cadmium sulfate	Mass fraction of nickel sulfate (1:1)	uncertainty
353.15	.1653	.2972	.0008916
353.15	.1848	.2732	.0008196
353.15	.2195	.2283	.0006849
353.15	.2557	.1783	.0005349
353.15	.2796	.1552	.0004656
353.15	.3009	.1223	.0003669
353.15	.3358	.0871	.0002613
353.15	.3697	.0472	.0001416
353.15	.3898	.0243	.0000729
353.15	.408	0	0
313.15	.3055	.1478	.0004434
313.15	.329	.1217	.0003651
313.15	.3465	.1021	.0003063
313.15	.3633	.0878	.0002634
313.15	.382	.062	.000186
313.15	.3948	.0471	.0001413
313.15	.4187	.0217	.0000651
313.15	.439	0	0

System: water + nickel sulfate (1:1) + cadmium sulfate; phases: Liquid, Crystal of intercomponent compound 1, Crystal of intercomponent compound 2, Air at 1 atmosphere
Property: Eutectic composition: mole fraction of nickel sulfate (1:1) (Liquid); method: Derived from phase diagram analysis
Temperature, K	Eutectic composition: mole fraction of nickel sulfate (1:1)	uncertainty
313.15	.1773	.0005319
353.15	.3285	.0009855
