Measured thermophysical data. Thermodynamics of the alanine aminotransferase reaction
Source: Fluid Phase Equilib., 2016, 10.1016/j.fluid.2016.01.023
Compound 1: sodium pyruvate, C3H3NaO3, purity 99.9%
Compound 2: sodium glutamate, C5H8NNaO4, purity 99%
Compound 3: disodium 2-oxo-glutarate, C5H4Na2O5, purity 99.5%
Compound 4: water, H2O, purity 99.8%

System: sodium pyruvate + water; phases: Liquid
Fixed: Temperature, K = 303.15
Fixed: Pressure, kPa = 101
Property: Mass density, kg/m3 (Liquid); method: Vibrating tube method
Molality, mol/kg of sodium pyruvate	Mass density, kg/m3	uncertainty
.01	995.66	
.053	997.57	
.101	1000.51	
.5	1018.19	
1.002	1041.67	
1.502	1065.87	

System: sodium glutamate + water; phases: Liquid
Fixed: Temperature, K = 303.15
Fixed: Pressure, kPa = 101
Property: Mass density, kg/m3 (Liquid); method: Vibrating tube method
Molality, mol/kg of sodium glutamate	Mass density, kg/m3	uncertainty
.01	996.19	
.043	999.15	
.1	1004.02	
.417	1030.44	
.896	1066.63	
1.454	1104.02	

System: disodium 2-oxo-glutarate + water; phases: Liquid
Fixed: Temperature, K = 303.15
Fixed: Pressure, kPa = 101
Property: Mass density, kg/m3 (Liquid); method: Vibrating tube method
Molality, mol/kg of disodium 2-oxo-glutarate	Mass density, kg/m3	uncertainty
.01	996.13	
.101	1007.45	
.5	1042.49	
1.001	1093.14	
1.501	1147.45	
