Measured thermophysical data. Phase equilibria on four binary systems containing 3-methylthiophene
Source: Fluid Phase Equilib., 2009, 10.1016/j.fluid.2009.02.010
Compound 1: 3-methylthiophene, C5H6S
Compound 2: 2,2,4-trimethylpentane, C8H18
Compound 3: cyclohexane, C6H12
Compound 4: 1-hexene, C6H12
Compound 5: 2,4,4-trimethyl-1-pentene, C8H16
Compound 6: 1,2-dimethylbenzene, C8H10

System: 3-methylthiophene; phases: Liquid
Fixed: Pressure, kPa = 101.325
Property: Refractive index (Na D-line) (Liquid); method: Standard Abbe refractometry
Temperature, K	Refractive index (Na D-line)	uncertainty
298.15	1.5172	.00002

System: 3-methylthiophene; phases: Liquid, Gas
Property: Vapor or sublimation pressure, kPa (Liquid); method: Ebulliometric method (Recirculating still)
Temperature, K	Vapor or sublimation pressure, kPa	uncertainty
387.89	100.02	.17
384.69	91	.17
380.53	80.35	.17
376.26	70.53	.17
371.73	61.23	.17
365.62	50.31	.17
359.01	40.33	.17
350.79	30.23	.17
341.98	21.8	.17
333.15	15.43	.17

System: 2,2,4-trimethylpentane; phases: Liquid
Fixed: Pressure, kPa = 101.325
Property: Refractive index (Na D-line) (Liquid); method: Standard Abbe refractometry
Temperature, K	Refractive index (Na D-line)	uncertainty
298.15	1.3889	.00002

System: cyclohexane; phases: Liquid
Fixed: Pressure, kPa = 101.325
Property: Refractive index (Na D-line) (Liquid); method: Standard Abbe refractometry
Temperature, K	Refractive index (Na D-line)	uncertainty
298.15	1.4235	.00002

System: 1-hexene; phases: Liquid
Fixed: Pressure, kPa = 101.325
Property: Refractive index (Na D-line) (Liquid); method: Standard Abbe refractometry
Temperature, K	Refractive index (Na D-line)	uncertainty
298.15	1.3849	.00002

System: 2,4,4-trimethyl-1-pentene; phases: Liquid
Fixed: Pressure, kPa = 101.325
Property: Refractive index (Na D-line) (Liquid); method: Standard Abbe refractometry
Temperature, K	Refractive index (Na D-line)	uncertainty
298.15	1.4062	.00002

System: 1,2-dimethylbenzene; phases: Liquid
Fixed: Pressure, kPa = 101.325
Property: Refractive index (Na D-line) (Liquid); method: Standard Abbe refractometry
Temperature, K	Refractive index (Na D-line)	uncertainty
298.15	1.5028	.00002

System: 2,2,4-trimethylpentane + 3-methylthiophene; phases: Liquid, Gas
Fixed: Temperature, K = 368.15
Property: Mole fraction of 3-methylthiophene (Liquid); method: Chromatography
Pressure, kPa	Mole fraction of 3-methylthiophene	uncertainty
90.09	0	.003
89.97	.045	.003
89.73	.103	.003
89.07	.174	.003
87.95	.264	.003
86.24	.362	.003
83.97	.463	.003
81.39	.554	.003
78.55	.64	.003
75.33	.72	.003
72.25	.783	.003
68.08	.852	.003
64.19	.906	.003
61.39	.944	.003
55.32	1	.003

System: 2,2,4-trimethylpentane + 3-methylthiophene; phases: Gas, Liquid
Fixed: Temperature, K = 368.15
Property: Mole fraction of 3-methylthiophene (Gas); method: Chromatography
Pressure, kPa	Mole fraction of 3-methylthiophene	uncertainty
90.09	0	.003
89.97	.044	.003
89.73	.096	.003
89.07	.156	.003
87.95	.226	.003
86.24	.295	.003
83.97	.367	.003
81.39	.436	.003
78.55	.497	.003
75.33	.561	.003
72.25	.627	.003
68.08	.702	.003
64.19	.782	.003
61.39	.854	.003
55.32	1	.003

System: 2,4,4-trimethyl-1-pentene + 3-methylthiophene; phases: Gas, Liquid
Fixed: Temperature, K = 368.15
Property: Mole fraction of 3-methylthiophene (Gas); method: Chromatography
Pressure, kPa	Mole fraction of 3-methylthiophene	uncertainty
84.35	0	.003
84.13	.038	.003
83.43	.1	.003
82.53	.164	.003
81.15	.24	.003
79.47	.312	.003
77.58	.38	.003
75.27	.453	.003
72.85	.521	.003
70.24	.588	.003
67.95	.651	.003
63.72	.758	.003
60.21	.861	.003
57.29	.944	.003
55.33	1	.003

System: 2,4,4-trimethyl-1-pentene + 3-methylthiophene; phases: Liquid, Gas
Fixed: Temperature, K = 368.15
Property: Mole fraction of 3-methylthiophene (Liquid); method: Chromatography
Pressure, kPa	Mole fraction of 3-methylthiophene	uncertainty
84.35	0	.003
84.13	.041	.003
83.43	.112	.003
82.53	.19	.003
81.15	.285	.003
79.47	.38	.003
77.58	.469	.003
75.27	.56	.003
72.85	.643	.003
70.24	.719	.003
67.95	.785	.003
63.72	.873	.003
60.21	.935	.003
57.29	.976	.003
55.33	1	.003

System: cyclohexane + 3-methylthiophene; phases: Liquid, Gas
Fixed: Temperature, K = 368.15
Property: Mole fraction of 3-methylthiophene (Liquid); method: Chromatography
Pressure, kPa	Mole fraction of 3-methylthiophene	uncertainty
85.2	0	.003
82.63	.061	.003
78.31	.163	.003
72.68	.293	.003
66.45	.43	.003
59.3	.574	.003
51.01	.716	.003
43.87	.817	.003
36.86	.906	.003
31.55	.965	.003
27.88	1	.003

System: cyclohexane + 3-methylthiophene; phases: Gas, Liquid
Fixed: Temperature, K = 368.15
Property: Mole fraction of 3-methylthiophene (Gas); method: Chromatography
Pressure, kPa	Mole fraction of 3-methylthiophene	uncertainty
85.2	0	.003
82.63	.031	.003
78.31	.08	.003
72.68	.141	.003
66.45	.208	.003
59.3	.29	.003
51.01	.406	.003
43.87	.525	.003
36.86	.689	.003
31.55	.855	.003
27.88	1	.003

System: 1-hexene + 3-methylthiophene; phases: Liquid, Gas
Fixed: Temperature, K = 368.15
Property: Mole fraction of 3-methylthiophene (Liquid); method: Chromatography
Pressure, kPa	Mole fraction of 3-methylthiophene	uncertainty
90.82	0	.003
85.12	.081	.003
81.36	.142	.003
78.22	.19	.003
74.6	.248	.003
70.18	.317	.003
66.76	.375	.003
61.63	.452	.003
58.6	.503	.003
50.57	.622	.003
41.61	.741	.003
36.62	.799	.003
30.39	.866	.003
26.82	.901	.003
23.1	.937	.003
21.81	.947	.003
21.16	.953	.003
18.11	.978	.003
17.44	.984	.003
15.32	1	.003

System: 1-hexene + 3-methylthiophene; phases: Gas, Liquid
Fixed: Temperature, K = 368.15
Property: Mole fraction of 3-methylthiophene (Gas); method: Chromatography
Pressure, kPa	Mole fraction of 3-methylthiophene	uncertainty
90.82	0	.003
85.12	.022	.003
81.36	.04	.003
78.22	.053	.003
74.6	.07	.003
70.18	.092	.003
66.76	.109	.003
61.63	.138	.003
58.6	.151	.003
50.57	.209	.003
41.61	.282	.003
36.62	.343	.003
30.39	.441	.003
26.82	.517	.003
23.1	.621	.003
21.81	.668	.003
21.16	.694	.003
18.11	.83	.003
17.44	.866	.003
15.32	1	.003
