Measured thermophysical data. Solubility of H2S in 1-(2-hydroxyethyl)-3-methylimidazolium ionic liquids with different anions
Source: Fluid Phase Equilib., 2010, 10.1016/j.fluid.2010.08.027
Compound 1: hydrogen sulfide, H2S, purity 99.95%
Compound 2: 3-(2-hydroxyethyl)-1-methylimidazolium hexafluorophosphate, C6H11F6N2OP, purity 98%
Compound 3: 3-(2-hydroxyethyl)-1-methylimidazolium 1,1,1-trifluoromethanesulfonate, C7H11F3N2O4S, purity 98%
Compound 4: 1-(2-hydroxyethyl)-3-methylimidazolium bis[(trifluoromethyl)sulfonyl]imide, C8H11F6N3O5S2, purity 98%

System: 3-(2-hydroxyethyl)-1-methylimidazolium hexafluorophosphate; phases: Liquid
Fixed: Pressure, kPa = 101.325
Property: Mass density, kg/m3 (Liquid); method: Vibrating tube method
Temperature, K	Mass density, kg/m3	uncertainty
303.15	1555.6	.2
308.15	1550.8	.2
313.15	1546	.2
318.15	1541.1	.2
323.15	1536.4	.2
328.15	1531.8	.2
333.15	1527.2	.2
338.15	1522.6	.2
343.15	1518.2	.2
348.15	1513.6	.2
353.15	1508.7	.2

System: 3-(2-hydroxyethyl)-1-methylimidazolium 1,1,1-trifluoromethanesulfonate; phases: Liquid
Fixed: Pressure, kPa = 101.325
Property: Mass density, kg/m3 (Liquid); method: Vibrating tube method
Temperature, K	Mass density, kg/m3	uncertainty
303.15	1444	.2
313.15	1436.1	.2
323.15	1428	.2
333.15	1420.5	.2
343.15	1410.8	.2
353.15	1400.5	.2

System: 1-(2-hydroxyethyl)-3-methylimidazolium bis[(trifluoromethyl)sulfonyl]imide; phases: Liquid
Fixed: Pressure, kPa = 101.325
Property: Mass density, kg/m3 (Liquid); method: Vibrating tube method
Temperature, K	Mass density, kg/m3	uncertainty
303.15	1589.4	.2
308.15	1584.2	.2
313.15	1578.9	.2
318.15	1574.2	.2
323.15	1568.7	.2
328.15	1563.7	.2
333.15	1558.7	.2
338.15	1553.7	.2
343.15	1548.8	.2
348.15	1544	.2
353.15	1538.6	.2

System: hydrogen sulfide + 3-(2-hydroxyethyl)-1-methylimidazolium hexafluorophosphate; phases: Liquid, Gas
Property: Mole fraction of hydrogen sulfide (Liquid); method: Static Method
Temperature, K	Pressure, kPa	Mole fraction of hydrogen sulfide	uncertainty
303.15	133.6	.048	.001
303.15	280.6	.098	.003
303.15	428.2	.147	.004
303.15	575.5	.195	.006
303.15	742	.246	.007
303.15	947	.307	.009
303.15	1157	.366	.01
303.15	1270	.396	.011
303.15	1508	.463	.013
313.15	144.4	.043	.002
313.15	464.8	.135	.004
313.15	627.5	.179	.006
313.15	812.5	.227	.007
313.15	1041	.281	.009
313.15	1280	.334	.01
313.15	1407	.366	.011
313.15	1685	.427	.013
323.15	155	.041	.001
323.15	326.6	.085	.002
323.15	500.2	.127	.003
323.15	675.6	.168	.005
323.15	878.8	.213	.006
323.15	1129	.26	.007
323.15	1392	.313	.008
323.15	1534	.337	.009
333.15	164.6	.038	.001
333.15	347.7	.079	.002
333.15	532.8	.118	.003
333.15	720.9	.157	.004
333.15	939.7	.199	.005
333.15	1210	.244	.006
333.15	1495	.291	.007
333.15	1644	.318	.008
343.15	174	.037	.001
343.15	368.3	.076	.002
343.15	565.2	.113	.003
343.15	763	.148	.004
343.15	996.6	.187	.005
343.15	1286	.232	.006
343.15	1592	.275	.007
353.15	182.8	.035	.001
353.15	387.8	.072	.002
353.15	593.6	.107	.003
353.15	803.8	.141	.004
353.15	1051	.178	.004
353.15	1356	.22	.006
353.15	1683	.262	.007

System: hydrogen sulfide + 3-(2-hydroxyethyl)-1-methylimidazolium hexafluorophosphate; phases: Liquid, Gas
Fixed: Mole fraction of hydrogen sulfide = 0
Property: Henry's Law constant (mole fraction scale), kPa of hydrogen sulfide (Liquid); method: Static Method
Temperature, K	Henry's Law constant (mole fraction scale), kPa of hydrogen sulfide	uncertainty
303.15	2770	20
313.15	3290	30
323.15	3680	30
333.15	4240	40
343.15	4630	40
353.15	5140	40

System: hydrogen sulfide + 3-(2-hydroxyethyl)-1-methylimidazolium 1,1,1-trifluoromethanesulfonate; phases: Liquid, Gas
Property: Mole fraction of hydrogen sulfide (Liquid); method: Static Method
Temperature, K	Pressure, kPa	Mole fraction of hydrogen sulfide	uncertainty
303.15	105.9	.053	.002
303.15	254.7	.124	.004
303.15	402.8	.189	.007
303.15	601.7	.269	.009
303.15	829.2	.345	.012
303.15	1116	.432	.014
303.15	1328	.482	.015
303.15	1631	.548	.018
313.15	117.1	.051	.001
313.15	282.6	.118	.002
313.15	447	.179	.003
313.15	671.9	.252	.004
313.15	930.5	.316	.005
313.15	1261	.399	.006
313.15	1509	.443	.007
323.15	127.8	.047	.001
323.15	309.3	.109	.002
323.15	489.6	.164	.002
323.15	738.3	.232	.004
323.15	1026	.291	.004
323.15	1398	.369	.006
323.15	1680	.41	.006
333.15	137.9	.043	.001
333.15	334.2	.1	.002
333.15	529.8	.151	.003
333.15	800.3	.214	.004
333.15	1117	.273	.005
333.15	1526	.341	.006
333.15	1839	.38	.007
343.15	147.2	.039	.001
343.15	358	.09	.002
343.15	567.8	.138	.002
343.15	860	.196	.003
343.15	1198	.254	.004
343.15	1645	.316	.005
353.15	156.1	.036	.001
353.15	380.5	.084	.001
353.15	603.6	.128	.002
353.15	914.5	.182	.003
353.15	1277	.237	.004
353.15	1756	.295	.005

System: hydrogen sulfide + 3-(2-hydroxyethyl)-1-methylimidazolium 1,1,1-trifluoromethanesulfonate; phases: Liquid, Gas
Fixed: Mole fraction of hydrogen sulfide = 0
Property: Henry's Law constant (mole fraction scale), kPa of hydrogen sulfide (Liquid); method: Static Method
Temperature, K	Henry's Law constant (mole fraction scale), kPa of hydrogen sulfide	uncertainty
303.15	1930	10
313.15	2210	20
323.15	2630	20
333.15	3090	20
343.15	3700	30
353.15	4240	30

System: hydrogen sulfide + 1-(2-hydroxyethyl)-3-methylimidazolium bis[(trifluoromethyl)sulfonyl]imide; phases: Liquid, Gas
Property: Mole fraction of hydrogen sulfide (Liquid); method: Static Method
Temperature, K	Pressure, kPa	Mole fraction of hydrogen sulfide	uncertainty
303.15	156.2	.08	.002
303.15	301	.149	.003
303.15	490.2	.233	.004
303.15	738.1	.332	.006
303.15	1034	.434	.008
303.15	1107	.457	.008
303.15	1378	.53	.009
303.15	1545	.572	.01
313.15	170.4	.076	.001
313.15	328.4	.142	.003
313.15	523.5	.217	.004
313.15	813.6	.309	.005
313.15	1148	.409	.007
313.15	1224	.426	.008
313.15	1544	.499	.009
323.15	183.8	.069	.001
323.15	355	.129	.002
323.15	581.6	.203	.003
323.15	884.7	.291	.004
323.15	1252	.384	.006
323.15	1336	.402	.006
323.15	1691	.472	.007
333.15	196.6	.065	.001
333.15	379.3	.121	.001
333.15	622.4	.191	.002
333.15	947.9	.273	.003
333.15	1346	.36	.004
333.15	1440	.382	.004
333.15	1832	.451	.005
343.15	207.8	.061	.001
343.15	402.1	.115	.001
343.15	660.6	.181	.002
343.15	1009	.261	.003
343.15	1438	.344	.003
343.15	1539	.364	.004
353.15	219.2	.058	.001
353.15	424.1	.109	.001
353.15	697.9	.173	.002
353.15	1068	.248	.002
353.15	1526	.328	.003
353.15	1634	.348	.003

System: hydrogen sulfide + 1-(2-hydroxyethyl)-3-methylimidazolium bis[(trifluoromethyl)sulfonyl]imide; phases: Liquid, Gas
Fixed: Mole fraction of hydrogen sulfide = 0
Property: Henry's Law constant (mole fraction scale), kPa of hydrogen sulfide (Liquid); method: Static Method
Temperature, K	Henry's Law constant (mole fraction scale), kPa of hydrogen sulfide	uncertainty
303.15	1890	20
313.15	2160	20
323.15	2590	30
333.15	2950	30
343.15	3290	30
353.15	3680	40
