Measured thermophysical data. Isothermal vapour-liquid equilibrium data for the binary systems 2-propanone + (2-butanol or propanoic acid)
Source: Fluid Phase Equilib., 2017, 10.1016/j.fluid.2016.10.024
Compound 1: 2-propanone, C3H6O, purity 99.8%
Compound 2: 2-butanol, C4H10O, purity 99.5%
Compound 3: propanoic acid, C3H6O2, purity 99.0%

System: 2-propanone; phases: Liquid
Fixed: Pressure, kPa = 101.325
Property: Refractive index (Na D-line) (Liquid); method: Standard Abbe refractometry
Temperature, K	Refractive index (Na D-line)	uncertainty
293.15	1.3588	.0004

System: 2-butanol; phases: Liquid
Fixed: Pressure, kPa = 101.325
Property: Refractive index (Na D-line) (Liquid); method: Standard Abbe refractometry
Temperature, K	Refractive index (Na D-line)	uncertainty
293.15	1.3978	.0004

System: propanoic acid; phases: Liquid
Fixed: Pressure, kPa = 101.325
Property: Refractive index (Na D-line) (Liquid); method: Standard Abbe refractometry
Temperature, K	Refractive index (Na D-line)	uncertainty
293.15	1.3809	.0004

System: 2-propanone + 2-butanol; phases: Gas, Liquid
Property: Vapor or sublimation pressure, kPa (Gas); method: Closed cell (Static) method
Temperature, K	Mole fraction of 2-propanone	Vapor or sublimation pressure, kPa	uncertainty
333.15	0	18.15	
333.15	.026	22.85	
333.15	.05	26.4	
333.15	.052	26.34	
333.15	.099	33.15	
333.15	.111	35.07	
333.15	.169	42.48	
333.15	.247	50.65	
333.15	.272	53.19	
333.15	.422	67.72	
333.15	.5	74.06	
333.15	.554	78.57	
333.15	.668	87.65	
333.15	.762	95.04	
333.15	.801	98.27	
333.15	.834	100.1	
333.15	.862	102.3	
333.15	.938	109.3	
333.15	.942	109.5	
333.15	1	115.5	
353.15	0	46.38	
353.15	.018	50.7	
353.15	.02	51.29	
353.15	.036	55.18	
353.15	.063	59.5	
353.15	.057	60.18	
353.15	.089	67.19	
353.15	.141	78.01	
353.15	.151	80.26	
353.15	.166	82.06	
353.15	.214	92.24	
353.15	.247	98.57	
353.15	.44	129.3	
353.15	.541	145.5	
353.15	.632	160.2	
353.15	.762	174.8	
353.15	.829	185.1	
353.15	.864	190.5	
353.15	.937	202.6	
353.15	.943	203.4	
353.15	1	213.8	

System: 2-propanone + 2-butanol; phases: Gas, Liquid
Property: Mole fraction of 2-propanone (Gas); method: Chromatography
Temperature, K	Mole fraction of 2-propanone	Mole fraction of 2-propanone	uncertainty
333.15	0	0	
333.15	.026	.211	
333.15	.05	.33	
333.15	.052	.335	
333.15	.099	.5	
333.15	.111	.531	
333.15	.169	.626	
333.15	.247	.712	
333.15	.272	.731	
333.15	.422	.82	
333.15	.5	.853	
333.15	.554	.872	
333.15	.668	.905	
333.15	.762	.933	
333.15	.801	.945	
333.15	.834	.958	
333.15	.862	.966	
333.15	.938	.985	
333.15	.942	.986	
333.15	1	1	
353.15	0	0	
353.15	.018	.093	
353.15	.02	.107	
353.15	.036	.175	
353.15	.063	.27	
353.15	.057	.258	
353.15	.089	.355	
353.15	.141	.469	
353.15	.151	.489	
353.15	.166	.513	
353.15	.214	.576	
353.15	.247	.621	
353.15	.44	.761	
353.15	.541	.82	
353.15	.632	.859	
353.15	.762	.916	
353.15	.829	.943	
353.15	.864	.956	
353.15	.937	.981	
353.15	.943	.983	
353.15	1	1	

System: 2-propanone + propanoic acid; phases: Gas, Liquid
Property: Vapor or sublimation pressure, kPa (Gas); method: Closed cell (Static) method
Temperature, K	Mole fraction of 2-propanone	Vapor or sublimation pressure, kPa	uncertainty
333.15	0	3.64	
333.15	.005	4.43	
333.15	.025	6.62	
333.15	.042	8.57	
333.15	.07	11.65	
333.15	.098	14.77	
333.15	.191	24.26	
333.15	.237	29.62	
333.15	.313	36.75	
333.15	.391	44.89	
333.15	.541	63.35	
333.15	.717	82.41	
333.15	.801	91.7	
333.15	.863	98.89	
333.15	.893	103.1	
333.15	1	115.5	
353.15	0	9.97	
353.15	.005	11.23	
353.15	.023	14.65	
353.15	.054	20.92	
353.15	.079	25.67	
353.15	.184	44.9	
353.15	.26	60.75	
353.15	.278	63.15	
353.15	.383	83.71	
353.15	.508	104	
353.15	.656	132.4	
353.15	.842	176.1	
353.15	.896	191.9	
353.15	1	213.8	
373.15	0	23.65	
373.15	.005	25.89	
373.15	.041	37.44	
373.15	.057	41.58	
373.15	.066	44.99	
373.15	.086	52.02	
373.15	.158	74.11	
373.15	.18	80.42	
373.15	.231	86.5	
373.15	.322	113.8	
373.15	.395	139.4	
373.15	.503	178.4	
373.15	.653	228.2	
373.15	.8	285.7	
373.15	.843	302.1	
373.15	.905	330.3	
373.15	.912	333.7	
373.15	.993	365.9	
373.15	1	369.4	

System: 2-propanone + propanoic acid; phases: Gas, Liquid
Property: Mole fraction of 2-propanone (Gas); method: Chromatography
Temperature, K	Mole fraction of 2-propanone	Mole fraction of 2-propanone	uncertainty
333.15	0	0	
333.15	.005	.103	
333.15	.025	.397	
333.15	.042	.504	
333.15	.07	.637	
333.15	.098	.73	
333.15	.191	.86	
333.15	.237	.892	
333.15	.313	.926	
333.15	.391	.944	
333.15	.541	.974	
333.15	.717	.99	
333.15	.801	.993	
333.15	.863	.996	
333.15	.893	.997	
333.15	1	1	
353.15	0	0	
353.15	.005	.056	
353.15	.023	.23	
353.15	.054	.435	
353.15	.079	.551	
353.15	.184	.771	
353.15	.26	.849	
353.15	.278	.863	
353.15	.383	.914	
353.15	.508	.944	
353.15	.656	.971	
353.15	.842	.991	
353.15	.896	.994	
353.15	1	1	
373.15	0	0	
373.15	.005	.044	
373.15	.041	.267	
373.15	.057	.327	
373.15	.066	.371	
373.15	.086	.462	
373.15	.158	.648	
373.15	.18	.686	
373.15	.231	.739	
373.15	.322	.823	
373.15	.395	.874	
373.15	.503	.921	
373.15	.653	.956	
373.15	.8	.98	
373.15	.843	.985	
373.15	.905	.992	
373.15	.912	.992	
373.15	.993	.999	
373.15	1	1	
