Measured thermophysical data. Solid-liquid equilibrium, excess molar volume, and deviations in the molar refractivity for the binary and ternary mixtures of Alamine 304-1 with 1-octanol, 2-octanol, and 1-decanol
Source: Fluid Phase Equilib., 2012, 10.1016/j.fluid.2012.03.025
Compound 1: 1-octanol, C8H18O, purity 99%
Compound 2: 2-octanol, C8H18O, purity 99%
Compound 3: 1-decanol, C10H22O, purity 99%
Compound 4: 1-dodecanamine, N,N-didodecyl-, C36H75N, purity 99%

System: 1-dodecanamine, N,N-didodecyl-; phases: Crystal, Liquid, Air at 1 atmosphere
Property: Normal melting temperature, K (Crystal); method: Unknown
Normal melting temperature, K	uncertainty
289.2	.2

System: 1-dodecanamine, N,N-didodecyl- + 1-octanol; phases: Liquid, Crystal
Fixed: Pressure, kPa = 101
Property: Mole fraction of 1-dodecanamine, N,N-didodecyl- (Liquid); method: Gravimetric
Temperature, K	Mole fraction of 1-dodecanamine, N,N-didodecyl-	uncertainty
257.7	0	.0001
277.3	.05	.0001
281.1	.1	.0001
283.2	.19	.0001
284.9	.3	.0001
285.9	.4	.0001
286.5	.5	.0001
286.9	.6	.0001
287.5	.71	.0001
287.9	.8	.0001
288.4	.9001	.0001
289.1	1	.0001

System: 1-dodecanamine, N,N-didodecyl- + 1-octanol; phases: Liquid
Fixed: Pressure, kPa = 101
Fixed: Temperature, K = 298.15
Property: Mass density, kg/m3 (Liquid); method: Vibrating tube method
Mole fraction of 1-dodecanamine, N,N-didodecyl-	Mass density, kg/m3	uncertainty
0	821.76	.005
.0652	821.91	.005
.1282	821.75	.005
.2477	821.37	.005
.3616	820.95	.005
.469	820.67	.005
.5695	820.41	.005
.6684	820.15	.005
.7531	819.94	.005
.8438	819.65	.005
.9238	819.4	.005
.9643	819.29	.005
1	819.23	.005

System: 1-dodecanamine, N,N-didodecyl- + 1-octanol; phases: Liquid
Fixed: Pressure, kPa = 101
Fixed: Temperature, K = 298.15
Property: Refractive index (Na D-line) (Liquid); method: Standard Abbe refractometry
Mole fraction of 1-dodecanamine, N,N-didodecyl-	Refractive index (Na D-line)	uncertainty
0	1.4275	.0001
.0652	1.4337	.0001
.1282	1.438	.0001
.2477	1.4434	.0001
.3616	1.4468	.0001
.469	1.4491	.0001
.5695	1.4506	.0001
.6684	1.4519	.0001
.7531	1.4528	.0001
.8438	1.4535	.0001
.9238	1.4541	.0001
.9643	1.4544	.0001
1	1.4546	.0001

System: 1-dodecanamine, N,N-didodecyl- + 2-octanol; phases: Liquid, Crystal
Fixed: Pressure, kPa = 101
Property: Mole fraction of 1-dodecanamine, N,N-didodecyl- (Liquid); method: Gravimetric
Temperature, K	Mole fraction of 1-dodecanamine, N,N-didodecyl-	uncertainty
241.2	0	.0001
271.1	.05	.0001
276.1	.1	.0001
280.5	.2	.0001
282.8	.3001	.0001
284.4	.41	.0001
285.9	.5	.0001
286.3	.6	.0001
287.3	.7	.0001
287.9	.8	.0001
288.5	.9	.0001
289.1	1	.0001

System: 1-dodecanamine, N,N-didodecyl- + 2-octanol; phases: Liquid
Fixed: Pressure, kPa = 101
Fixed: Temperature, K = 298.15
Property: Mass density, kg/m3 (Liquid); method: Vibrating tube method
Mole fraction of 1-dodecanamine, N,N-didodecyl-	Mass density, kg/m3	uncertainty
0	816.49	.005
.0526	816.69	.005
.1042	816.97	.005
.2072	817.55	.005
.31	818.03	.005
.4111	818.41	.005
.5114	818.68	.005
.6109	818.88	.005
.7083	819.04	.005
.805	819.15	.005
.9037	819.22	.005
.9524	819.24	.005
1	819.23	.005

System: 1-dodecanamine, N,N-didodecyl- + 2-octanol; phases: Liquid
Fixed: Pressure, kPa = 101
Fixed: Temperature, K = 298.15
Property: Refractive index (Na D-line) (Liquid); method: Standard Abbe refractometry
Mole fraction of 1-dodecanamine, N,N-didodecyl-	Refractive index (Na D-line)	uncertainty
0	1.4244	.0001
.0526	1.4296	.0001
.1042	1.4336	.0001
.2072	1.4396	.0001
.31	1.4436	.0001
.4111	1.4465	.0001
.5114	1.4486	.0001
.6109	1.4503	.0001
.7083	1.4516	.0001
.805	1.4528	.0001
.9037	1.4537	.0001
.9524	1.4541	.0001
1	1.4546	.0001

System: 1-dodecanamine, N,N-didodecyl- + 1-decanol; phases: Liquid, Crystal
Fixed: Pressure, kPa = 101
Property: Mole fraction of 1-dodecanamine, N,N-didodecyl- (Liquid); method: Gravimetric
Temperature, K	Mole fraction of 1-dodecanamine, N,N-didodecyl-	uncertainty
280.1	0	.0001
279.4	.05	.0001
278.5	.1	.0001
278.2	.13	.0001
279.1	.16	.0001
280.4	.2	.0001
282.8	.3	.0001
284.7	.4	.0001
286	.5	.0001
286.6	.6	.0001
287.3	.7	.0001
287.8	.8	.0001
288.5	.9	.0001
288.7	.95	.0001
289.1	1	.0001

System: 1-dodecanamine, N,N-didodecyl- + 1-decanol; phases: Liquid
Fixed: Pressure, kPa = 101
Fixed: Temperature, K = 298.15
Property: Mass density, kg/m3 (Liquid); method: Vibrating tube method
Mole fraction of 1-dodecanamine, N,N-didodecyl-	Mass density, kg/m3	uncertainty
0	826.59	.005
.0522	825.92	.005
.104	825.24	.005
.2071	824.17	.005
.3096	823.37	.005
.4117	822.57	.005
.5112	821.93	.005
.6117	821.35	.005
.7097	820.82	.005
.8078	820.35	.005
.9041	819.86	.005
.9534	819.53	.005
1	819.23	.005

System: 1-dodecanamine, N,N-didodecyl- + 1-decanol; phases: Liquid
Fixed: Pressure, kPa = 101
Fixed: Temperature, K = 298.15
Property: Refractive index (Na D-line) (Liquid); method: Standard Abbe refractometry
Mole fraction of 1-dodecanamine, N,N-didodecyl-	Refractive index (Na D-line)	uncertainty
0	1.4354	.0001
.0522	1.4385	.0001
.104	1.4409	.0001
.2071	1.4448	.0001
.3096	1.447	.0001
.4117	1.4493	.0001
.5112	1.4506	.0001
.6117	1.4519	.0001
.7097	1.4528	.0001
.8078	1.4535	.0001
.9041	1.4541	.0001
.9534	1.4544	.0001
1	1.4546	.0001

System: 1-octanol + 2-octanol; phases: Liquid
Fixed: Pressure, kPa = 101
Fixed: Temperature, K = 298.15
Property: Mass density, kg/m3 (Liquid); method: Vibrating tube method
Mole fraction of 1-octanol	Mass density, kg/m3	uncertainty
0	816.49	.005
.0403	816.8	.005
.0812	817.11	.005
.1657	817.65	.005
.2539	818.13	.005
.3458	818.63	.005
.4421	819.16	.005
.5431	819.71	.005
.649	820.28	.005
.7603	820.85	.005
.8771	821.36	.005
.9375	821.61	.005
1	821.76	.005

System: 1-octanol + 2-octanol; phases: Liquid
Fixed: Pressure, kPa = 101
Fixed: Temperature, K = 298.15
Property: Refractive index (Na D-line) (Liquid); method: Standard Abbe refractometry
Mole fraction of 1-octanol	Refractive index (Na D-line)	uncertainty
0	1.4243	.0001
.0403	1.4246	.0001
.0812	1.4247	.0001
.1657	1.425	.0001
.2539	1.4253	.0001
.3458	1.4255	.0001
.4421	1.4259	.0001
.5431	1.4262	.0001
.649	1.4265	.0001
.7603	1.4268	.0001
.8771	1.4272	.0001
.9375	1.4273	.0001
1	1.4275	.0001

System: 1-decanol + 2-octanol; phases: Liquid
Fixed: Pressure, kPa = 101
Fixed: Temperature, K = 298.15
Property: Mass density, kg/m3 (Liquid); method: Vibrating tube method
Mole fraction of 2-octanol	Mass density, kg/m3	uncertainty
0	826.59	.005
.0505	826.1	.005
.1001	825.65	.005
.1998	824.82	.005
.2999	824.02	.005
.4006	823.14	.005
.5001	822.18	.005
.6	821.17	.005
.6999	820.13	.005
.7995	819.04	.005
.8998	817.86	.005
.95	817.21	.005
1	816.49	.005

System: 1-decanol + 2-octanol; phases: Liquid
Fixed: Pressure, kPa = 101
Fixed: Temperature, K = 298.15
Property: Refractive index (Na D-line) (Liquid); method: Standard Abbe refractometry
Mole fraction of 2-octanol	Refractive index (Na D-line)	uncertainty
0	1.4354	.0001
.0505	1.4349	.0001
.1001	1.4344	.0001
.1998	1.4334	.0001
.2999	1.4325	.0001
.4006	1.4315	.0001
.5001	1.4304	.0001
.6	1.4293	.0001
.6999	1.4281	.0001
.7995	1.427	.0001
.8998	1.4257	.0001
.95	1.4251	.0001
1	1.4244	.0001
