Measured thermophysical data. The phase envelopes of alternative solvents (ionic liquid, CO2) and building blocks of biomass origin (lactic acid, propionic acid)
Source: Fluid Phase Equilib., 2010, 10.1016/j.fluid.2010.05.013
Compound 1: carbon dioxide, CO2, purity 99.998%
Compound 2: propanoic acid, C3H6O2, purity 99%
Compound 3: 2-hydroxypropanoic acid, C3H6O3, purity 99%
Compound 4: 1-ethyl-3-methylimidazolium bis[(trifluoromethyl)sulfonyl]imide, C8H11F6N3O4S2, purity 98%

System: 2-hydroxypropanoic acid + carbon dioxide; phases: Gas, Liquid
Fixed: Temperature, K = 313.15
Property: Mole fraction of carbon dioxide (Gas); method: Chromatography
Mole fraction of carbon dioxide	Mole fraction of carbon dioxide	uncertainty
.166	1	.003
.202	1	.003
.222	1	.003
.241	1	.003
.252	1	.003
.273	1	.003
.283	1	.003
.289	1	.003
.293	.999	.003
.302	.999	.003

System: 2-hydroxypropanoic acid + carbon dioxide; phases: Liquid, Gas
Fixed: Temperature, K = 313.15
Property: Vapor or sublimation pressure, kPa (Liquid); method: Closed cell (Static) method
Mole fraction of carbon dioxide	Vapor or sublimation pressure, kPa	uncertainty
.166	3450	10
.202	4690	10
.222	5510	10
.241	6340	10
.252	7410	10
.273	8110	10
.283	9000	10
.289	9580	10
.293	10000	10
.302	12000	10

System: propanoic acid + 1-ethyl-3-methylimidazolium bis[(trifluoromethyl)sulfonyl]imide; phases: Liquid, Crystal
Fixed: Pressure, kPa = 100
Property: Solid-liquid equilibrium temperature, K (Liquid); method: Visual observation
Mole fraction of propanoic acid	Solid-liquid equilibrium temperature, K	uncertainty
1	256.15	.05
.6284	256.14	.05
.6039	252.42	.05
.4947	247.41	.05
.3976	249.41	.05
.2964	252.43	.05
.1988	252.14	.05
.0997	252.75	.05
0	252.32	.05

System: 2-hydroxypropanoic acid + 1-ethyl-3-methylimidazolium bis[(trifluoromethyl)sulfonyl]imide; phases: Liquid, Crystal
Fixed: Pressure, kPa = 100
Property: Solid-liquid equilibrium temperature, K (Liquid); method: Visual observation
Mole fraction of 2-hydroxypropanoic acid	Solid-liquid equilibrium temperature, K	uncertainty
.295	255.89	.05
.2579	245.14	.05
.0716	218.03	.05
.0515	245.03	.05
.03	273.15	.05
0	290	.05

System: 2-hydroxypropanoic acid + 1-ethyl-3-methylimidazolium bis[(trifluoromethyl)sulfonyl]imide; phases: Liquid mixture 1, Liquid mixture 2
Fixed: Pressure, kPa = 100
Property: Liquid-liquid equilibrium temperature, K (Liquid mixture 1); method: Visual observation
Mole fraction of 2-hydroxypropanoic acid	Liquid-liquid equilibrium temperature, K	uncertainty
1	256.15	.05
.9802	341.27	.05
.9484	391.9	.05
.5479	389.85	.05
.4468	360.93	.05
.3945	340.23	.05
.3543	320.42	.05
.3211	284.42	.05

System: propanoic acid + carbon dioxide + 1-ethyl-3-methylimidazolium bis[(trifluoromethyl)sulfonyl]imide; phases: Liquid mixture 2, Liquid mixture 1
Fixed: Temperature, K = 313.15
Property: Mole fraction of 1-ethyl-3-methylimidazolium bis[(trifluoromethyl)sulfonyl]imide (Liquid mixture 2); method: Chromatography
Property: Mole fraction of 1-ethyl-3-methylimidazolium bis[(trifluoromethyl)sulfonyl]imide (Liquid mixture 1); method: Chromatography
Property: Mole fraction of propanoic acid (Liquid mixture 1); method: Chromatography
Pressure, kPa	Mole fraction of propanoic acid	Mole fraction of 1-ethyl-3-methylimidazolium bis[(trifluoromethyl)sulfonyl]imide	uncertainty	Mole fraction of 1-ethyl-3-methylimidazolium bis[(trifluoromethyl)sulfonyl]imide	uncertainty	Mole fraction of propanoic acid	uncertainty
9000	.221	.598	.002	.853	.002	.019	.002
9000	.152	.641	.002	.771	.002	.052	.002
10000	.231	.612	.002	.878	.002	.034	.002
10000	.159	.652	.002	.789	.002	.062	.002
12000	.221	.67	.002	.976	.002	.008	.002
12000	.147	.721	.002	.959	.002	.012	.002

System: propanoic acid + carbon dioxide + 1-ethyl-3-methylimidazolium bis[(trifluoromethyl)sulfonyl]imide; phases: Liquid, Gas
Fixed: Temperature, K = 313.15
Property: Mole fraction of propanoic acid (Liquid); method: Chromatography
Property: Mole fraction of propanoic acid (Gas); method: Chromatography
Property: Mole fraction of 1-ethyl-3-methylimidazolium bis[(trifluoromethyl)sulfonyl]imide (Gas); method: Chromatography
Pressure, kPa	Mole fraction of 1-ethyl-3-methylimidazolium bis[(trifluoromethyl)sulfonyl]imide	Mole fraction of propanoic acid	uncertainty	Mole fraction of propanoic acid	uncertainty	Mole fraction of 1-ethyl-3-methylimidazolium bis[(trifluoromethyl)sulfonyl]imide	uncertainty
9000	.081	.149	.002	.091	.003	0	.003
9000	.149	.109	.002	.064	.003	0	.003
9000	.227	.061	.002	.032	.003	0	.003
10000	.069	.144	.002	.074	.003	0	.003
10000	.138	.101	.002	.058	.003	0	.003
10000	.209	.052	.002	.024	.003	0	.003
12000	.052	.109	.002	.04	.003	0	.003
12000	.123	.099	.002	.032	.003	0	.003
12000	.184	.048	.002	.009	.003	0	.003

System: 2-hydroxypropanoic acid + carbon dioxide + 1-ethyl-3-methylimidazolium bis[(trifluoromethyl)sulfonyl]imide; phases: Liquid mixture 2, Liquid mixture 1
Fixed: Temperature, K = 313.15
Property: Mole fraction of 2-hydroxypropanoic acid (Liquid mixture 2); method: Chromatography
Property: Mole fraction of 1-ethyl-3-methylimidazolium bis[(trifluoromethyl)sulfonyl]imide (Liquid mixture 1); method: Chromatography
Property: Mole fraction of 2-hydroxypropanoic acid (Liquid mixture 1); method: Chromatography
Pressure, kPa	Mole fraction of 1-ethyl-3-methylimidazolium bis[(trifluoromethyl)sulfonyl]imide	Mole fraction of 2-hydroxypropanoic acid	uncertainty	Mole fraction of 1-ethyl-3-methylimidazolium bis[(trifluoromethyl)sulfonyl]imide	uncertainty	Mole fraction of 2-hydroxypropanoic acid	uncertainty
9000	.299	.632	.002	.898	.002	.01	.002
9000	.225	.624	.002	.429	.002	.019	.002
10000	.289	.622	.002	.878	.002	.034	.002
10000	.228	.593	.002	.41	.002	.032	.002

System: 2-hydroxypropanoic acid + carbon dioxide + 1-ethyl-3-methylimidazolium bis[(trifluoromethyl)sulfonyl]imide; phases: Liquid, Gas
Fixed: Temperature, K = 313.15
Property: Mole fraction of 1-ethyl-3-methylimidazolium bis[(trifluoromethyl)sulfonyl]imide (Liquid); method: Chromatography
Property: Mole fraction of 2-hydroxypropanoic acid (Gas); method: Chromatography
Property: Mole fraction of 1-ethyl-3-methylimidazolium bis[(trifluoromethyl)sulfonyl]imide (Gas); method: Chromatography
Pressure, kPa	Mole fraction of 2-hydroxypropanoic acid	Mole fraction of 1-ethyl-3-methylimidazolium bis[(trifluoromethyl)sulfonyl]imide	uncertainty	Mole fraction of 2-hydroxypropanoic acid	uncertainty	Mole fraction of 1-ethyl-3-methylimidazolium bis[(trifluoromethyl)sulfonyl]imide	uncertainty
9000	.008	.295	.002	0	.003	0	.003
9000	.648	.175	.002	.008	.003	0	.003
9000	.698	.081	.002	.031	.003	0	.003
10000	.028	.255	.002	0	.003	0	.003
10000	.628	.165	.002	.002	.003	0	.003
10000	.678	.101	.002	.011	.003	0	.003
12000	.038	.248	.002	0	.003	0	.003
12000	.622	.159	.002	0	.003	0	.003
12000	.661	.098	.002	.007	.003	0	.003
