Measured thermophysical data. Coupled phase-reaction equilibrium for dihydromyrcene hydration system
Source: Fluid Phase Equilib., 2017, 10.1016/j.fluid.2016.11.007
Compound 1: acetone, C3H6O, purity 99.5%
Compound 2: cyclohexanone, C6H10O, purity 99.5%
Compound 3: dihydromyrcenol, C10H20O, purity 99.5%
Compound 4: ethanol, C2H6O, purity 99.7%
Compound 5: n-propanol, C3H8O, purity 99.8%
Compound 6: water, H2O
Compound 7: dihydromyrcene, C10H18, purity 89%

System: water + acetone + dihydromyrcene; phases: Liquid mixture 2, Liquid mixture 1
Fixed: Pressure, kPa = 800
Property: Mole fraction of acetone (Liquid mixture 2); method: Chromatography
Property: Mole fraction of acetone (Liquid mixture 1); method: Chromatography
Property: Mole fraction of water (Liquid mixture 1); method: Chromatography
Temperature, K	Mole fraction of water	Mole fraction of acetone	uncertainty	Mole fraction of acetone	uncertainty	Mole fraction of water	uncertainty
358	.9832	.0159	.000159	.0627	.000627	.0235	.000235
363	.944	.0536	.000536	.2288	.002288	.0487	.000487
363	.9141	.0832	.000832	.2733	.002733	.075	.00075
363	.8787	.1176	.001176	.3523	.003523	.0769	.000769
363	.8179	.1775	.001775	.4324	.004324	.1137	.001137
363	.7477	.2467	.002467	.4785	.004785	.1723	.001723
363	.6939	.2989	.002989	.5196	.005196	.2149	.002149
363	.6114	.3676	.003676	.5476	.005476	.2532	.002532
368	.9818	.0165	.000165	.065	.00065	.0482	.000482
368	.9631	.0348	.000348	.139	.00139	.0592	.000592
368	.9494	.0482	.000482	.2012	.002012	.0664	.000664
358	.9486	.0504	.000504	.2082	.002082	.0515	.000515
368	.9128	.0839	.000839	.2839	.002839	.0723	.000723
368	.8673	.1285	.001285	.3572	.003572	.0898	.000898
368	.8252	.168	.00168	.4282	.004282	.1271	.001271
368	.7481	.2433	.002433	.4723	.004723	.1833	.001833
368	.6079	.3671	.003671	.5326	.005326	.295	.00295
358	.9191	.0785	.000785	.3046	.003046	.0767	.000767
358	.8906	.1048	.001048	.369	.00369	.0971	.000971
358	.8473	.1472	.001472	.4492	.004492	.1344	.001344
358	.791	.2029	.002029	.5027	.005027	.2069	.002069
358	.7608	.2317	.002317	.5222	.005222	.2438	.002438
358	.7086	.2811	.002811	.5452	.005452	.2815	.002815
363	.9662	.0319	.000319	.1409	.001409	.0406	.000406
