Measured thermophysical data. A study on the liquid-liquid equilibrium of 1-alkyl-3-methylimidazolium dialkylphosphate with methanol and dimethyl carbonate
Source: Fluid Phase Equilib., 2014, 10.1016/j.fluid.2014.09.016
Compound 1: methanol, CH4O, purity 99.5%
Compound 2: dimethyl carbonate, C3H6O3, purity 99%
Compound 3: 1-butanol, C4H10O, purity 99.9%
Compound 4: 1,3-dimethylimidazolium dimethylphosphate, C7H15N2O4P, purity 98%
Compound 5: 1-ethyl-3-methylimidazolium diethylphosphate, C10H21N2O4P, purity 98%

System: 1,3-dimethylimidazolium dimethylphosphate; phases: Liquid
Fixed: Pressure, kPa = 101.325
Property: Mass density, kg/m3 (Liquid); method: Pycnometric method
Temperature, K	Mass density, kg/m3	uncertainty
298.15	1257.8	.2

System: 1-ethyl-3-methylimidazolium diethylphosphate; phases: Liquid
Fixed: Pressure, kPa = 101.325
Property: Mass density, kg/m3 (Liquid); method: Pycnometric method
Temperature, K	Mass density, kg/m3	uncertainty
298.15	1146.1	.2

System: methanol + dimethyl carbonate + 1,3-dimethylimidazolium dimethylphosphate; phases: Liquid mixture 1, Liquid mixture 2
Property: Mole fraction of dimethyl carbonate (Liquid mixture 1); method: Chromatography
Property: Mole fraction of methanol (Liquid mixture 2); method: Chromatography
Property: Mole fraction of dimethyl carbonate (Liquid mixture 2); method: Chromatography
Temperature, K	Pressure, kPa	Mole fraction of methanol	Mole fraction of dimethyl carbonate	uncertainty	Mole fraction of methanol	uncertainty	Mole fraction of dimethyl carbonate	uncertainty
298.2	101.325	0	.827	.001	0	.001	.402	.001
313.2	101.325	.153	.652	.001	.182	.001	.506	.001
298.2	101.325	.031	.804	.001	.055	.001	.404	.001
298.2	101.325	.052	.785	.001	.076	.001	.409	.001
298.2	101.325	.075	.764	.001	.102	.001	.414	.001
298.2	101.325	.09	.748	.001	.122	.001	.42	.001
298.2	101.325	.114	.724	.001	.154	.001	.427	.001
298.2	101.325	.132	.702	.001	.177	.001	.439	.001
298.2	101.325	.145	.687	.001	.195	.001	.45	.001
298.2	101.325	.163	.666	.001	.219	.001	.465	.001
313.2	101.325	0	.799	.001	0	.001	.437	.001
313.2	101.325	.025	.783	.001	.041	.001	.438	.001
313.2	101.325	.047	.764	.001	.059	.001	.444	.001
313.2	101.325	.065	.748	.001	.081	.001	.45	.001
313.2	101.325	.081	.731	.001	.101	.001	.459	.001
313.2	101.325	.102	.709	.001	.123	.001	.467	.001
313.2	101.325	.116	.697	.001	.144	.001	.478	.001
313.2	101.325	.135	.676	.001	.161	.001	.491	.001

System: methanol + dimethyl carbonate + 1-ethyl-3-methylimidazolium diethylphosphate; phases: Liquid mixture 1, Liquid mixture 2
Property: Mole fraction of dimethyl carbonate (Liquid mixture 1); method: Chromatography
Property: Mole fraction of methanol (Liquid mixture 2); method: Chromatography
Property: Mole fraction of dimethyl carbonate (Liquid mixture 2); method: Chromatography
Temperature, K	Pressure, kPa	Mole fraction of methanol	Mole fraction of dimethyl carbonate	uncertainty	Mole fraction of methanol	uncertainty	Mole fraction of dimethyl carbonate	uncertainty
298.2	101.325	0	.804	.001	0	.001	.417	.001
313.2	101.325	.138	.637	.001	.155	.001	.489	.001
298.2	101.325	.039	.778	.001	.054	.001	.427	.001
298.2	101.325	.055	.762	.001	.073	.001	.432	.001
298.2	101.325	.081	.741	.001	.096	.001	.447	.001
298.2	101.325	.095	.719	.001	.112	.001	.451	.001
298.2	101.325	.112	.701	.001	.131	.001	.457	.001
298.2	101.325	.125	.678	.001	.146	.001	.464	.001
298.2	101.325	.139	.665	.001	.162	.001	.47	.001
298.2	101.325	.148	.653	.001	.172	.001	.481	.001
313.2	101.325	0	.787	.001	0	.001	.451	.001
313.2	101.325	.026	.768	.001	.036	.001	.457	.001
313.2	101.325	.043	.749	.001	.058	.001	.459	.001
313.2	101.325	.068	.724	.001	.083	.001	.463	.001
313.2	101.325	.079	.711	.001	.095	.001	.464	.001
313.2	101.325	.101	.688	.001	.116	.001	.473	.001
313.2	101.325	.113	.667	.001	.128	.001	.479	.001
313.2	101.325	.125	.653	.001	.141	.001	.485	.001
