Measured thermophysical data. Separation of the mixture pyridine + methylbenzene via several acidic ionic liquids: Phase equilibrium measurement and correlation
Source: Fluid Phase Equilib., 2017, 10.1016/j.fluid.2017.03.009
Compound 1: pyridine, C5H5N, purity 99.5%
Compound 2: methylbenzene, C7H8, purity 99.5%
Compound 3: 1-butyl-3-methylimidazolium hydrogen sulfate, C8H16N2O4S
Compound 4: 1-butyl-3-methylimidazolium dihydrogen phosphate, C8H17N2O4P
Compound 5: 1-butyl-3-methylimidazolium perchlorate, C8H15ClN2O4

System: methylbenzene + pyridine + 1-butyl-3-methylimidazolium hydrogen sulfate; phases: Liquid mixture 2, Liquid mixture 1
Fixed: Temperature, K = 298.15
Fixed: Pressure, kPa = 101.3
Property: Mole fraction of pyridine (Liquid mixture 2); method: Chromatography
Property: Mole fraction of pyridine (Liquid mixture 1); method: Chromatography
Property: Mole fraction of 1-butyl-3-methylimidazolium hydrogen sulfate (Liquid mixture 1); method: Chromatography
Mole fraction of 1-butyl-3-methylimidazolium hydrogen sulfate	Mole fraction of pyridine	uncertainty	Mole fraction of pyridine	uncertainty	Mole fraction of 1-butyl-3-methylimidazolium hydrogen sulfate	uncertainty
.8914	0	.001	0	.001	0	.0001
.7414	.1519	.001	.2153	.001	0	.0001
.6399	.2521	.001	.3059	.001	0	.0001
.5122	.3779	.001	.4112	.001	0	.0001
.4545	.4407	.001	.5098	.001	.0006	.0001
.3906	.5217	.001	.6236	.001	.0012	.0001
.3189	.6032	.001	.7298	.001	.0027	.0001
.2301	.7015	.001	.818	.001	.0129	.0001
.2076	.7271	.001	.8477	.001	.0135	.0001

System: methylbenzene + pyridine + 1-butyl-3-methylimidazolium dihydrogen phosphate; phases: Liquid mixture 2, Liquid mixture 1
Fixed: Temperature, K = 298.15
Fixed: Pressure, kPa = 101.3
Property: Mole fraction of pyridine (Liquid mixture 2); method: Chromatography
Property: Mole fraction of pyridine (Liquid mixture 1); method: Chromatography
Property: Mole fraction of 1-butyl-3-methylimidazolium dihydrogen phosphate (Liquid mixture 1); method: Chromatography
Mole fraction of 1-butyl-3-methylimidazolium dihydrogen phosphate	Mole fraction of pyridine	uncertainty	Mole fraction of pyridine	uncertainty	Mole fraction of 1-butyl-3-methylimidazolium dihydrogen phosphate	uncertainty
.7849	0	.001	0	.001	.0001	.0001
.6121	.2139	.001	.174	.001	0	.0001
.5047	.3425	.001	.2976	.001	0	.0001
.4731	.3901	.001	.4038	.001	0	.0001
.4264	.449	.001	.5129	.001	0	.0001
.3544	.5453	.001	.6198	.001	.0009	.0001
.3211	.5969	.001	.7321	.001	.0021	.0001
.2506	.6892	.001	.8466	.001	.0064	.0001
.228	.7304	.001	.8894	.001	.0113	.0001

System: methylbenzene + pyridine + 1-butyl-3-methylimidazolium perchlorate; phases: Liquid mixture 2, Liquid mixture 1
Fixed: Temperature, K = 298.15
Fixed: Pressure, kPa = 101.3
Property: Mole fraction of pyridine (Liquid mixture 2); method: Chromatography
Property: Mole fraction of pyridine (Liquid mixture 1); method: Chromatography
Property: Mole fraction of 1-butyl-3-methylimidazolium perchlorate (Liquid mixture 1); method: Chromatography
Mole fraction of 1-butyl-3-methylimidazolium perchlorate	Mole fraction of pyridine	uncertainty	Mole fraction of pyridine	uncertainty	Mole fraction of 1-butyl-3-methylimidazolium perchlorate	uncertainty
.6157	0	.001	0	.001	0	.0001
.5192	.0753	.001	.0898	.001	0	.0001
.4022	.1802	.001	.1965	.001	.0001	.0001
.3283	.2422	.001	.2536	.001	.0006	.0001
.2921	.28	.001	.3027	.001	.0007	.0001
.2209	.3282	.001	.3576	.001	.0021	.0001
.1865	.3526	.001	.3903	.001	.0047	.0001
.1067	.4054	.001	.4416	.001	.0201	.0001

System: methylbenzene + 1-butyl-3-methylimidazolium hydrogen sulfate; phases: Liquid mixture 2, Liquid mixture 1
Property: Mole fraction of 1-butyl-3-methylimidazolium hydrogen sulfate (Liquid mixture 2); method: Chromatography
Temperature, K	Pressure, kPa	Mole fraction of 1-butyl-3-methylimidazolium hydrogen sulfate	uncertainty
298.15	101.3	.8914	

System: methylbenzene + pyridine; phases: Liquid mixture 1, Liquid mixture 2
Property: Mole fraction of pyridine (Liquid mixture 1); method: Chromatography
Temperature, K	Pressure, kPa	Mole fraction of pyridine	uncertainty
298.15	101.3	.2153	
298.15	101.3	.3059	
298.15	101.3	.4112	
298.15	101.3	.174	
298.15	101.3	.2976	
298.15	101.3	.4038	
298.15	101.3	.5129	
298.15	101.3	.0898	

System: methylbenzene + 1-butyl-3-methylimidazolium dihydrogen phosphate; phases: Liquid mixture 2, Liquid mixture 1
Property: Mole fraction of 1-butyl-3-methylimidazolium dihydrogen phosphate (Liquid mixture 2); method: Chromatography
Temperature, K	Pressure, kPa	Mole fraction of 1-butyl-3-methylimidazolium dihydrogen phosphate	uncertainty
298.15	101.3	.7849	

System: methylbenzene + 1-butyl-3-methylimidazolium dihydrogen phosphate; phases: Liquid mixture 1, Liquid mixture 2
Property: Mole fraction of 1-butyl-3-methylimidazolium dihydrogen phosphate (Liquid mixture 1); method: Chromatography
Temperature, K	Pressure, kPa	Mole fraction of 1-butyl-3-methylimidazolium dihydrogen phosphate	uncertainty
298.15	101.3	.0001	

System: methylbenzene + 1-butyl-3-methylimidazolium perchlorate; phases: Liquid mixture 2, Liquid mixture 1
Property: Mole fraction of 1-butyl-3-methylimidazolium perchlorate (Liquid mixture 2); method: Chromatography
Temperature, K	Pressure, kPa	Mole fraction of 1-butyl-3-methylimidazolium perchlorate	uncertainty
298.15	101.3	.6157	
