Measured thermophysical data. Volumetric and viscometric behavior of the binary systems ethyl lactate + 1,2- propanediol, + 1,3-propanediol, + tetrahydrofuran and + tetraethylene glycol dimethyl ether. New UNIFAC-VISCO and ASOG-VISCO parameters determination
Source: Fluid Phase Equilib., 2014, 10.1016/j.fluid.2014.04.002
Compound 1: (+-)-ethyl  2-hydroxypropionate, C5H10O3, purity 98%
Compound 2: 1,2-propanediol, C3H8O2, purity 99%
Compound 3: 1,3-propanediol, C3H8O2, purity 98%
Compound 4: tetrahydrofuran, C4H8O, purity 99%
Compound 5: 2,5,8,11,14-pentaoxapentadecane, C10H22O5, purity 99%

System: (+-)-ethyl  2-hydroxypropionate; phases: Liquid
Property: Mass density, kg/m3 (Liquid); method: Vibrating tube method
Temperature, K	Pressure, kPa	Mass density, kg/m3	uncertainty
288.15	101	1039.275	.02
293.15	101	1033.844	.02
298.15	101	1028.392	.02
303.15	101	1022.918	.02
308.15	101	1017.42	.02
313.15	101	1011.902	.02
318.15	101	1006.358	.02
323.15	101	1000.789	.02

System: (+-)-ethyl  2-hydroxypropionate; phases: Liquid
Fixed: Pressure, kPa = 101.325
Property: Refractive index (Na D-line) (Liquid); method: Standard Abbe refractometry
Temperature, K	Refractive index (Na D-line)	uncertainty
288.15	1.41537	.00006
293.15	1.41307	.00006
298.15	1.41076	.00006
303.15	1.40843	.00006
308.15	1.4061	.00006
313.15	1.40374	.00006
318.15	1.40136	.00006
323.15	1.39898	.00006

System: (+-)-ethyl  2-hydroxypropionate; phases: Liquid
Property: Viscosity, Pa*s (Liquid); method: Concentric cylinders viscometry
Temperature, K	Pressure, kPa	Viscosity, Pa*s	uncertainty
288.15	101	.0032069	.0000256552
293.15	101	.0027502	.0000220016
298.15	101	.0023902	.0000191216
303.15	101	.0020968	.0000167744
308.15	101	.0018576	.0000148608
313.15	101	.0016584	.0000132672
318.15	101	.0014906	.0000119248
323.15	101	.0013487	.0000107896

System: 1,2-propanediol; phases: Liquid
Property: Mass density, kg/m3 (Liquid); method: Vibrating tube method
Temperature, K	Pressure, kPa	Mass density, kg/m3	uncertainty
288.15	101	1039.871	.02
293.15	101	1036.247	.02
298.15	101	1032.588	.02
303.15	101	1028.881	.02
308.15	101	1025.137	.02
313.15	101	1021.351	.02
318.15	101	1017.524	.02
323.15	101	1013.656	.02

System: 1,2-propanediol; phases: Liquid
Fixed: Pressure, kPa = 101.325
Property: Refractive index (Na D-line) (Liquid); method: Standard Abbe refractometry
Temperature, K	Refractive index (Na D-line)	uncertainty
288.15	1.43437	.00006
293.15	1.4327	.00006
298.15	1.43102	.00006
303.15	1.42934	.00006
308.15	1.42764	.00006
313.15	1.42591	.00006
318.15	1.4242	.00006
323.15	1.42246	.00006

System: 1,2-propanediol; phases: Liquid
Property: Viscosity, Pa*s (Liquid); method: Concentric cylinders viscometry
Temperature, K	Pressure, kPa	Viscosity, Pa*s	uncertainty
288.15	101	.08254	.00066032
293.15	101	.05662	.00045296
298.15	101	.044026	.000352208
303.15	101	.033164	.000265312
308.15	101	.025446	.000203568
313.15	101	.019854	.000158832
318.15	101	.015731	.000125848
323.15	101	.012641	.000101128

System: 1,3-propanediol; phases: Liquid
Property: Mass density, kg/m3 (Liquid); method: Vibrating tube method
Temperature, K	Pressure, kPa	Mass density, kg/m3	uncertainty
288.15	101	1055.895	.02
293.15	101	1052.8	.02
298.15	101	1049.692	.02
303.15	101	1046.571	.02
308.15	101	1043.431	.02
313.15	101	1040.278	.02
318.15	101	1037.105	.02
323.15	101	1033.908	.02

System: 1,3-propanediol; phases: Liquid
Fixed: Pressure, kPa = 101.325
Property: Refractive index (Na D-line) (Liquid); method: Standard Abbe refractometry
Temperature, K	Refractive index (Na D-line)	uncertainty
288.15	1.44091	.00006
293.15	1.43949	.00006
298.15	1.43808	.00006
303.15	1.43667	.00006
308.15	1.43526	.00006
313.15	1.43384	.00006
318.15	1.43243	.00006
323.15	1.43101	.00006

System: 1,3-propanediol; phases: Liquid
Property: Viscosity, Pa*s (Liquid); method: Concentric cylinders viscometry
Temperature, K	Pressure, kPa	Viscosity, Pa*s	uncertainty
288.15	101	.067301	.000538408
293.15	101	.052518	.000420144
298.15	101	.041507	.000332056
303.15	101	.033203	.000265624
308.15	101	.026862	.000214896
313.15	101	.021966	.000175728
318.15	101	.018136	.000145088
323.15	101	.015202	.000121616

System: tetrahydrofuran; phases: Liquid
Property: Mass density, kg/m3 (Liquid); method: Vibrating tube method
Temperature, K	Pressure, kPa	Mass density, kg/m3	uncertainty
288.15	101	893.293	.02
293.15	101	887.865	.02
298.15	101	882.403	.02
303.15	101	876.911	.02
308.15	101	871.384	.02
313.15	101	865.82	.02
318.15	101	860.213	.02
323.15	101	854.558	.02

System: tetrahydrofuran; phases: Liquid
Fixed: Pressure, kPa = 101.325
Property: Refractive index (Na D-line) (Liquid); method: Standard Abbe refractometry
Temperature, K	Refractive index (Na D-line)	uncertainty
288.15	1.41005	.00006
293.15	1.40737	.00006
298.15	1.40472	.00006
303.15	1.40203	.00006
308.15	1.39931	.00006
313.15	1.39659	.00006
318.15	1.3938	.00006
323.15	1.39098	.00006

System: tetrahydrofuran; phases: Liquid
Property: Viscosity, Pa*s (Liquid); method: Concentric cylinders viscometry
Temperature, K	Pressure, kPa	Viscosity, Pa*s	uncertainty
288.15	101	.00052517	.00000420136
293.15	101	.00050477	.00000403816
298.15	101	.00048473	.00000387784
303.15	101	.00046403	.00000371224
308.15	101	.00044333	.00000354664
313.15	101	.00042266	.00000338128
318.15	101	.00040048	.00000320384
323.15	101	.00036358	.00000290864

System: 2,5,8,11,14-pentaoxapentadecane; phases: Liquid
Property: Mass density, kg/m3 (Liquid); method: Vibrating tube method
Temperature, K	Pressure, kPa	Mass density, kg/m3	uncertainty
288.15	101	1016.701	.02
293.15	101	1012.06	.02
298.15	101	1007.421	.02
303.15	101	1002.787	.02
308.15	101	998.153	.02
313.15	101	993.523	.02
318.15	101	988.892	.02
323.15	101	984.262	.02

System: 2,5,8,11,14-pentaoxapentadecane; phases: Liquid
Fixed: Pressure, kPa = 101.325
Property: Refractive index (Na D-line) (Liquid); method: Standard Abbe refractometry
Temperature, K	Refractive index (Na D-line)	uncertainty
288.15	1.43553	.00006
293.15	1.43338	.00006
298.15	1.43123	.00006
303.15	1.42906	.00006
308.15	1.42697	.00006
313.15	1.42447	.00006
318.15	1.42206	.00006
323.15	1.41985	.00006

System: 2,5,8,11,14-pentaoxapentadecane; phases: Liquid
Property: Viscosity, Pa*s (Liquid); method: Concentric cylinders viscometry
Temperature, K	Pressure, kPa	Viscosity, Pa*s	uncertainty
288.15	101	.0043531	.0000348248
293.15	101	.0037946	.0000303568
298.15	101	.0033481	.0000267848
303.15	101	.002983	.000023864
308.15	101	.0026683	.0000213464
313.15	101	.0024066	.0000192528
318.15	101	.002185	.00001748
323.15	101	.0020032	.0000160256

System: 1,2-propanediol + (+-)-ethyl  2-hydroxypropionate; phases: Liquid
Fixed: Pressure, kPa = 101
Property: Mass density, kg/m3 (Liquid); method: Vibrating tube method
Temperature, K	Mole fraction of (+-)-ethyl  2-hydroxypropionate	Mass density, kg/m3	uncertainty
288.15	0	1039.871	.02
288.15	.1	1039.887	.02
288.15	.2	1039.868	.02
288.15	.3	1039.876	.02
288.15	.3999	1039.907	.02
288.15	.4998	1039.944	.02
288.15	.599	1039.96	.02
288.15	.6999	1039.904	.02
288.15	.7994	1039.717	.02
288.15	.8997	1039.315	.02
288.15	1	1039.275	.02
293.15	0	1036.247	.02
293.15	.1	1036.358	.02
293.15	.2	1035.808	.02
293.15	.3	1035.602	.02
293.15	.3999	1035.442	.02
293.15	.4998	1035.304	.02
293.15	.599	1035.152	.02
293.15	.6999	1034.926	.02
293.15	.7994	1034.571	.02
293.15	.8997	1034.005	.02
293.15	1	1033.844	.02
298.15	0	1032.588	.02
298.15	.1	1032.129	.02
298.15	.2	1031.645	.02
298.15	.3	1031.204	.02
298.15	.3999	1030.829	.02
298.15	.4998	1030.515	.02
298.15	.599	1030.234	.02
298.15	.6999	1029.936	.02
298.15	.7994	1029.576	.02
298.15	.8997	1029.082	.02
298.15	1	1028.392	.02
303.15	0	1028.881	.02
303.15	.1	1028.313	.02
303.15	.2	1027.601	.02
303.15	.3	1026.98	.02
303.15	.3999	1026.44	.02
303.15	.4998	1025.946	.02
303.15	.599	1025.456	.02
303.15	.6999	1024.893	.02
303.15	.7994	1024.207	.02
303.15	.8997	1023.315	.02
303.15	1	1022.918	.02
308.15	0	1025.137	.02
308.15	.1	1024.228	.02
308.15	.2	1023.362	.02
308.15	.3	1022.602	.02
308.15	.3999	1021.897	.02
308.15	.4998	1021.205	.02
308.15	.599	1020.495	.02
308.15	.6999	1019.72	.02
308.15	.7994	1018.877	.02
308.15	.8997	1017.933	.02
308.15	1	1017.42	.02
313.15	0	1021.351	.02
313.15	.1	1020.396	.02
313.15	.2	1019.258	.02
313.15	.3	1018.238	.02
313.15	.3999	1017.323	.02
313.15	.4998	1016.473	.02
313.15	.599	1015.643	.02
313.15	.6999	1014.747	.02
313.15	.7994	1013.74	.02
313.15	.8997	1012.53	.02
313.15	1	1011.902	.02
318.15	0	1017.524	.02
318.15	.1	1016.387	.02
318.15	.2	1015.036	.02
318.15	.3	1013.818	.02
318.15	.3999	1012.716	.02
318.15	.4998	1011.689	.02
318.15	.599	1010.69	.02
318.15	.6999	1009.628	.02
318.15	.7994	1008.463	.02
318.15	.8997	1007.099	.02
318.15	1	1006.358	.02
323.15	0	1013.656	.02
323.15	.1	1012.339	.02
323.15	.2	1010.776	.02
323.15	.3	1009.362	.02
323.15	.3999	1008.078	.02
323.15	.4998	1006.877	.02
323.15	.599	1005.71	.02
323.15	.6999	1004.481	.02
323.15	.7994	1003.155	.02
323.15	.8997	1001.641	.02
323.15	1	1000.789	.02

System: 1,2-propanediol + (+-)-ethyl  2-hydroxypropionate; phases: Liquid
Fixed: Pressure, kPa = 101
Property: Refractive index (Na D-line) (Liquid); method: Standard Abbe refractometry
Temperature, K	Mole fraction of (+-)-ethyl  2-hydroxypropionate	Refractive index (Na D-line)	uncertainty
288.15	0	1.43437	.00006
288.15	.1	1.43169	.00006
288.15	.2	1.42919	.00006
288.15	.3	1.42688	.00006
288.15	.3999	1.42476	.00006
288.15	.4998	1.42287	.00006
288.15	.599	1.42116	.00006
288.15	.6999	1.41959	.00006
288.15	.7994	1.41814	.00006
288.15	.8997	1.41676	.00006
288.15	1	1.41537	.00006
293.15	0	1.4327	.00006
293.15	.1	1.42994	.00006
293.15	.2	1.42736	.00006
293.15	.3	1.42499	.00006
293.15	.3999	1.4228	.00006
293.15	.4998	1.42086	.00006
293.15	.599	1.4191	.00006
293.15	.6999	1.41747	.00006
293.15	.7994	1.41597	.00006
293.15	.8997	1.41452	.00006
293.15	1	1.41307	.00006
298.15	0	1.43102	.00006
298.15	.1	1.42819	.00006
298.15	.2	1.42554	.00006
298.15	.3	1.42309	.00006
298.15	.3999	1.42085	.00006
298.15	.4998	1.41883	.00006
298.15	.599	1.41701	.00006
298.15	.6999	1.41532	.00006
298.15	.7994	1.41377	.00006
298.15	.8997	1.41227	.00006
298.15	1	1.41076	.00006
303.15	0	1.42934	.00006
303.15	.1	1.42642	.00006
303.15	.2	1.42369	.00006
303.15	.3	1.42118	.00006
303.15	.3999	1.41886	.00006
303.15	.4998	1.41679	.00006
303.15	.599	1.41491	.00006
303.15	.6999	1.41316	.00006
303.15	.7994	1.41155	.00006
303.15	.8997	1.40999	.00006
303.15	1	1.40843	.00006
308.15	0	1.42764	.00006
308.15	.1	1.42461	.00006
308.15	.2	1.42181	.00006
308.15	.3	1.41924	.00006
308.15	.3999	1.41688	.00006
308.15	.4998	1.41475	.00006
308.15	.599	1.41282	.00006
308.15	.6999	1.41102	.00006
308.15	.7994	1.40935	.00006
308.15	.8997	1.40773	.00006
308.15	1	1.4061	.00006
313.15	0	1.42591	.00006
313.15	.1	1.42279	.00006
313.15	.2	1.41992	.00006
313.15	.3	1.41729	.00006
313.15	.3999	1.41488	.00006
313.15	.4998	1.4127	.00006
313.15	.599	1.41071	.00006
313.15	.6999	1.40884	.00006
313.15	.7994	1.40711	.00006
313.15	.8997	1.40542	.00006
313.15	1	1.40374	.00006
318.15	0	1.4242	.00006
318.15	.1	1.42098	.00006
318.15	.2	1.41801	.00006
318.15	.3	1.41529	.00006
318.15	.3999	1.41282	.00006
318.15	.4998	1.41055	.00006
318.15	.599	1.4085	.00006
318.15	.6999	1.40659	.00006
318.15	.7994	1.40481	.00006
318.15	.8997	1.40309	.00006
318.15	1	1.40136	.00006
323.15	0	1.42246	.00006
323.15	.1	1.41918	.00006
323.15	.2	1.41615	.00006
323.15	.3	1.41337	.00006
323.15	.3999	1.41082	.00006
323.15	.4998	1.40849	.00006
323.15	.599	1.40637	.00006
323.15	.6999	1.40437	.00006
323.15	.7994	1.40252	.00006
323.15	.8997	1.40073	.00006
323.15	1	1.39898	.00006

System: 1,2-propanediol + (+-)-ethyl  2-hydroxypropionate; phases: Liquid
Fixed: Pressure, kPa = 101
Property: Viscosity, Pa*s (Liquid); method: Concentric cylinders viscometry
Temperature, K	Mole fraction of (+-)-ethyl  2-hydroxypropionate	Viscosity, Pa*s	uncertainty
288.15	0	.08254	.00066032
288.15	.1	.049884	.000399072
288.15	.2	.03087	.00024696
288.15	.3	.021195	.00016956
288.15	.3999	.014746	.000117968
288.15	.4998	.010622	.000084976
288.15	.599	.0076159	.0000609272
288.15	.6999	.0061687	.0000493496
288.15	.7994	.0047638	.0000381104
288.15	.8997	.0041136	.0000329088
288.15	1	.0032069	.0000256552
293.15	0	.05662	.00045296
293.15	.1	.036911	.000295288
293.15	.2	.023412	.000187296
293.15	.3	.016339	.000130712
293.15	.3999	.011641	.000093128
293.15	.4998	.008236	.000065888
293.15	.599	.0062266	.0000498128
293.15	.6999	.0050978	.0000407824
293.15	.7994	.0041531	.0000332248
293.15	.8997	.0034775	.00002782
293.15	1	.0027502	.0000220016
298.15	0	.044026	.000352208
298.15	.1	.027719	.000221752
298.15	.2	.018113	.000144904
298.15	.3	.012871	.000102968
298.15	.3999	.0093028	.0000744224
298.15	.4998	.0067502	.0000540016
298.15	.599	.0051716	.0000413728
298.15	.6999	.0042742	.0000341936
298.15	.7994	.0035206	.0000281648
298.15	.8997	.0029782	.0000238256
298.15	1	.0023902	.0000191216
303.15	0	.033164	.000265312
303.15	.1	.021488	.000171904
303.15	.2	.014263	.000114104
303.15	.3	.010369	.000082952
303.15	.3999	.0076049	.0000608392
303.15	.4998	.0056152	.0000449216
303.15	.599	.0043501	.0000348008
303.15	.6999	.003632	.000029056
303.15	.7994	.0030213	.0000241704
303.15	.8997	.0025819	.0000206552
303.15	1	.0020968	.0000167744
308.15	0	.025446	.000203568
308.15	.1	.016841	.000134728
308.15	.2	.011411	.000091288
308.15	.3	.008434	.000067472
308.15	.3999	.0062919	.0000503352
308.15	.4998	.0047392	.0000379136
308.15	.599	.0037039	.0000296312
308.15	.6999	.003118	.000024944
308.15	.7994	.0026259	.0000210072
308.15	.8997	.0022589	.0000180712
308.15	1	.0018576	.0000148608
313.15	0	.019854	.000158832
313.15	.1	.013406	.000107248
313.15	.2	.0092636	.0000741088
313.15	.3	.0069486	.0000555888
313.15	.3999	.0052703	.0000421624
313.15	.4998	.0040396	.0000323168
313.15	.599	.0031865	.000025492
313.15	.6999	.0027058	.0000216464
313.15	.7994	.0023015	.000018412
313.15	.8997	.0019945	.000015956
313.15	1	.0016584	.0000132672
318.15	0	.015731	.000125848
318.15	.1	.010826	.000086608
318.15	.2	.0076192	.0000609536
318.15	.3	.0058044	.0000464352
318.15	.3999	.0044655	.000035724
318.15	.4998	.0034817	.0000278536
318.15	.599	.0027669	.0000221352
318.15	.6999	.0023684	.0000189472
318.15	.7994	.0020336	.0000162688
318.15	.8997	.0017738	.0000141904
318.15	1	.0014906	.0000119248
323.15	0	.012641	.000101128
323.15	.1	.00886	.00007088
323.15	.2	.0063397	.0000507176
323.15	.3	.0049035	.000039228
323.15	.3999	.0038235	.000030588
323.15	.4998	.00303	.00002424
323.15	.599	.0024232	.0000193856
323.15	.6999	.0020902	.0000167216
323.15	.7994	.0018101	.0000144808
323.15	.8997	.001589	.000012712
323.15	1	.0013487	.0000107896

System: (+-)-ethyl  2-hydroxypropionate + 1,3-propanediol; phases: Liquid
Fixed: Pressure, kPa = 101
Property: Mass density, kg/m3 (Liquid); method: Vibrating tube method
Temperature, K	Mole fraction of (+-)-ethyl  2-hydroxypropionate	Mass density, kg/m3	uncertainty
288.15	0	1055.895	.02
288.15	.1001	1056.194	.02
288.15	.2001	1055.732	.02
288.15	.3	1054.584	.02
288.15	.3998	1053.408	.02
288.15	.4996	1051.806	.02
288.15	.5997	1049.854	.02
288.15	.7	1047.672	.02
288.15	.8	1045.159	.02
288.15	.8997	1042.56	.02
288.15	1	1039.275	.02
293.15	0	1052.8	.02
293.15	.1001	1052.836	.02
293.15	.2001	1052.116	.02
293.15	.3	1050.736	.02
293.15	.3998	1049.304	.02
293.15	.4996	1047.461	.02
293.15	.5997	1045.281	.02
293.15	.7	1042.882	.02
293.15	.8	1040.145	.02
293.15	.8997	1037.342	.02
293.15	1	1033.844	.02
298.15	0	1049.692	.02
298.15	.1001	1049.468	.02
298.15	.2001	1048.482	.02
298.15	.3	1046.867	.02
298.15	.3998	1045.135	.02
298.15	.4996	1043.098	.02
298.15	.5997	1040.688	.02
298.15	.7	1038.07	.02
298.15	.8	1035.106	.02
298.15	.8997	1032.097	.02
298.15	1	1028.392	.02
303.15	0	1046.571	.02
303.15	.1001	1046.08	.02
303.15	.2001	1044.83	.02
303.15	.3	1042.981	.02
303.15	.3998	1041.019	.02
303.15	.4996	1038.712	.02
303.15	.5997	1036.07	.02
303.15	.7	1033.234	.02
303.15	.8	1030.045	.02
303.15	.8997	1026.832	.02
303.15	1	1022.918	.02
308.15	0	1043.431	.02
308.15	.1001	1042.679	.02
308.15	.2001	1041.158	.02
308.15	.3	1039.065	.02
308.15	.3998	1036.659	.02
308.15	.4996	1034.298	.02
308.15	.5997	1031.425	.02
308.15	.7	1028.37	.02
308.15	.8	1024.956	.02
308.15	.8997	1021.538	.02
308.15	1	1017.42	.02
313.15	0	1040.278	.02
313.15	.1001	1039.252	.02
313.15	.2001	1037.465	.02
313.15	.3	1035.129	.02
313.15	.3998	1032.522	.02
313.15	.4996	1029.86	.02
313.15	.5997	1026.753	.02
313.15	.7	1023.478	.02
313.15	.8	1019.838	.02
313.15	.8997	1016.218	.02
313.15	1	1011.902	.02
318.15	0	1037.105	.02
318.15	.1001	1035.802	.02
318.15	.2001	1033.745	.02
318.15	.3	1031.161	.02
318.15	.3998	1028.325	.02
318.15	.4996	1025.393	.02
318.15	.5997	1022.05	.02
318.15	.7	1018.554	.02
318.15	.8	1014.692	.02
318.15	.8997	1010.872	.02
318.15	1	1006.358	.02
323.15	0	1033.908	.02
323.15	.1001	1032.329	.02
323.15	.2001	1029.997	.02
323.15	.3	1027.159	.02
323.15	.3998	1024.088	.02
323.15	.4996	1020.894	.02
323.15	.5997	1017.315	.02
323.15	.7	1013.597	.02
323.15	.8	1009.514	.02
323.15	.8997	1005.498	.02
323.15	1	1000.789	.02

System: (+-)-ethyl  2-hydroxypropionate + 1,3-propanediol; phases: Liquid
Fixed: Pressure, kPa = 101
Property: Refractive index (Na D-line) (Liquid); method: Standard Abbe refractometry
Temperature, K	Mole fraction of (+-)-ethyl  2-hydroxypropionate	Refractive index (Na D-line)	uncertainty
288.15	0	1.44091	.00006
288.15	.1001	1.43819	.00006
288.15	.2001	1.43549	.00006
288.15	.3	1.43282	.00006
288.15	.3998	1.43021	.00006
288.15	.4996	1.42764	.00006
288.15	.5997	1.4251	.00006
288.15	.7	1.42262	.00006
288.15	.8	1.42017	.00006
288.15	.8997	1.41776	.00006
288.15	1	1.41537	.00006
293.15	0	1.43949	.00006
293.15	.1001	1.43668	.00006
293.15	.2001	1.43388	.00006
293.15	.3	1.43111	.00006
293.15	.3998	1.4284	.00006
293.15	.4996	1.42573	.00006
293.15	.5997	1.42312	.00006
293.15	.7	1.42055	.00006
293.15	.8	1.41803	.00006
293.15	.8997	1.41554	.00006
293.15	1	1.41307	.00006
298.15	0	1.43808	.00006
298.15	.1001	1.43517	.00006
298.15	.2001	1.43227	.00006
298.15	.3	1.4294	.00006
298.15	.3998	1.42658	.00006
298.15	.4996	1.42383	.00006
298.15	.5997	1.42114	.00006
298.15	.7	1.41851	.00006
298.15	.8	1.41592	.00006
298.15	.8997	1.41336	.00006
298.15	1	1.41076	.00006
303.15	0	1.43667	.00006
303.15	.1001	1.43362	.00006
303.15	.2001	1.43062	.00006
303.15	.3	1.42766	.00006
303.15	.3998	1.42476	.00006
303.15	.4996	1.42192	.00006
303.15	.5997	1.41914	.00006
303.15	.7	1.4164	.00006
303.15	.8	1.41371	.00006
303.15	.8997	1.41107	.00006
303.15	1	1.40843	.00006
308.15	0	1.43526	.00006
308.15	.1001	1.43214	.00006
308.15	.2001	1.42902	.00006
308.15	.3	1.42592	.00006
308.15	.3998	1.42292	.00006
308.15	.4996	1.41996	.00006
308.15	.5997	1.41713	.00006
308.15	.7	1.41427	.00006
308.15	.8	1.41152	.00006
308.15	.8997	1.40882	.00006
308.15	1	1.4061	.00006
313.15	0	1.43384	.00006
313.15	.1001	1.43065	.00006
313.15	.2001	1.42743	.00006
313.15	.3	1.42421	.00006
313.15	.3998	1.42111	.00006
313.15	.4996	1.41805	.00006
313.15	.5997	1.41506	.00006
313.15	.7	1.41215	.00006
313.15	.8	1.40932	.00006
313.15	.8997	1.40654	.00006
313.15	1	1.40374	.00006
318.15	0	1.43243	.00006
318.15	.1001	1.42914	.00006
318.15	.2001	1.4258	.00006
318.15	.3	1.42249	.00006
318.15	.3998	1.41923	.00006
318.15	.4996	1.41608	.00006
318.15	.5997	1.41301	.00006
318.15	.7	1.41004	.00006
318.15	.8	1.40715	.00006
318.15	.8997	1.40428	.00006
318.15	1	1.40136	.00006
323.15	0	1.43101	.00006
323.15	.1001	1.42761	.00006
323.15	.2001	1.42417	.00006
323.15	.3	1.42075	.00006
323.15	.3998	1.41741	.00006
323.15	.4996	1.41415	.00006
323.15	.5997	1.41097	.00006
323.15	.7	1.40792	.00006
323.15	.8	1.40493	.00006
323.15	.8997	1.40198	.00006
323.15	1	1.39898	.00006

System: (+-)-ethyl  2-hydroxypropionate + 1,3-propanediol; phases: Liquid
Fixed: Pressure, kPa = 101
Property: Viscosity, Pa*s (Liquid); method: Concentric cylinders viscometry
Temperature, K	Mole fraction of (+-)-ethyl  2-hydroxypropionate	Viscosity, Pa*s	uncertainty
288.15	0	.067301	.000538408
288.15	.1001	.051259	.000410072
288.15	.2001	.038553	.000308424
288.15	.3	.028058	.000224464
288.15	.3998	.020152	.000161216
288.15	.4996	.014628	.000117024
288.15	.5997	.010554	.000084432
288.15	.7	.0077142	.0000617136
288.15	.8	.0056394	.0000451152
288.15	.8997	.004327	.000034616
288.15	1	.0032069	.0000256552
293.15	0	.052518	.000420144
293.15	.1001	.040036	.000320288
293.15	.2001	.030142	.000241136
293.15	.3	.022165	.00017732
293.15	.3998	.016058	.000128464
293.15	.4996	.011781	.000094248
293.15	.5997	.0085794	.0000686352
293.15	.7	.0063496	.0000507968
293.15	.8	.0047035	.000037628
293.15	.8997	.0035832	.0000286656
293.15	1	.0027502	.0000220016
298.15	0	.041507	.000332056
298.15	.1001	.031545	.00025236
298.15	.2001	.023969	.000191752
298.15	.3	.017758	.000142064
298.15	.3998	.012924	.000103392
298.15	.4996	.0095854	.0000766832
298.15	.5997	.0070715	.000056572
298.15	.7	.0052961	.0000423688
298.15	.8	.0039736	.0000317888
298.15	.8997	.0030709	.0000245672
298.15	1	.0023902	.0000191216
303.15	0	.033203	.000265624
303.15	.1001	.025297	.000202376
303.15	.2001	.019392	.000155136
303.15	.3	.014352	.000114816
303.15	.3998	.010581	.000084648
303.15	.4996	.0079422	.0000635376
303.15	.5997	.0059123	.0000472984
303.15	.7	.0044822	.0000358576
303.15	.8	.0034048	.0000272384
303.15	.8997	.0026609	.0000212872
303.15	1	.0020968	.0000167744
308.15	0	.026862	.000214896
308.15	.1001	.020613	.000164904
308.15	.2001	.015814	.000126512
308.15	.3	.011836	.000094688
308.15	.3998	.0087907	.0000703256
308.15	.4996	.0066498	.0000531984
308.15	.5997	.0050093	.0000400744
308.15	.7	.0038329	.0000306632
308.15	.8	.0029443	.0000235544
308.15	.8997	.0023289	.0000186312
308.15	1	.0018576	.0000148608
313.15	0	.021966	.000175728
313.15	.1001	.016901	.000135208
313.15	.2001	.013035	.00010428
313.15	.3	.0098263	.0000786104
313.15	.3998	.0073647	.0000589176
313.15	.4996	.0056244	.0000449952
313.15	.5997	.0042796	.0000342368
313.15	.7	.0033084	.0000264672
313.15	.8	.0025695	.000020556
313.15	.8997	.0020558	.0000164464
313.15	1	.0016584	.0000132672
318.15	0	.018136	.000145088
318.15	.1001	.013999	.000111992
318.15	.2001	.010857	.000086856
318.15	.3	.0082355	.000065884
318.15	.3998	.0062323	.0000498584
318.15	.4996	.0048052	.0000384416
318.15	.5997	.0036909	.0000295272
318.15	.7	.0028826	.0000230608
318.15	.8	.0022625	.0000181
318.15	.8997	.0018297	.0000146376
318.15	1	.0014906	.0000119248
323.15	0	.015202	.000121616
323.15	.1001	.011783	.000094264
323.15	.2001	.0091885	.000073508
323.15	.3	.007027	.000056216
323.15	.3998	.0053612	.0000428896
323.15	.4996	.0041738	.0000333904
323.15	.5997	.0032349	.0000258792
323.15	.7	.002551	.000020408
323.15	.8	.0020228	.0000161824
323.15	.8997	.001648	.000013184
323.15	1	.0013487	.0000107896

System: (+-)-ethyl  2-hydroxypropionate + tetrahydrofuran; phases: Liquid
Fixed: Pressure, kPa = 101
Property: Mass density, kg/m3 (Liquid); method: Vibrating tube method
Temperature, K	Mole fraction of (+-)-ethyl  2-hydroxypropionate	Mass density, kg/m3	uncertainty
288.15	0	893.293	.02
288.15	.1002	913.682	.02
288.15	.2001	932.177	.02
288.15	.3001	949.134	.02
288.15	.4001	964.944	.02
288.15	.4999	979.595	.02
288.15	.5999	993.315	.02
288.15	.6999	1006.148	.02
288.15	.7999	1018.129	.02
288.15	.8997	1029.167	.02
288.15	1	1039.275	.02
293.15	0	887.865	.02
293.15	.1002	908.275	.02
293.15	.2001	926.796	.02
293.15	.3001	943.748	.02
293.15	.4001	959.567	.02
293.15	.4999	974.209	.02
293.15	.5999	987.924	.02
293.15	.6999	1000.759	.02
293.15	.7999	1012.738	.02
293.15	.8997	1023.774	.02
293.15	1	1033.844	.02
298.15	0	882.403	.02
298.15	.1002	902.835	.02
298.15	.2001	921.368	.02
298.15	.3001	938.334	.02
298.15	.4001	954.154	.02
298.15	.4999	968.8	.02
298.15	.5999	982.515	.02
298.15	.6999	995.342	.02
298.15	.7999	1007.323	.02
298.15	.8997	1018.343	.02
298.15	1	1028.392	.02
303.15	0	876.911	.02
303.15	.1002	897.364	.02
303.15	.2001	915.916	.02
303.15	.3001	932.893	.02
303.15	.4001	948.718	.02
303.15	.4999	963.363	.02
303.15	.5999	977.073	.02
303.15	.6999	989.9	.02
303.15	.7999	1001.881	.02
303.15	.8997	1012.895	.02
303.15	1	1022.918	.02
308.15	0	871.384	.02
308.15	.1002	891.857	.02
308.15	.2001	910.441	.02
308.15	.3001	927.416	.02
308.15	.4001	943.254	.02
308.15	.4999	957.89	.02
308.15	.5999	971.596	.02
308.15	.6999	984.431	.02
308.15	.7999	996.411	.02
308.15	.8997	1007.432	.02
308.15	1	1017.42	.02
313.15	0	865.82	.02
313.15	.1002	886.313	.02
313.15	.2001	904.918	.02
313.15	.3001	921.903	.02
313.15	.4001	937.749	.02
313.15	.4999	952.388	.02
313.15	.5999	966.093	.02
313.15	.6999	978.93	.02
313.15	.7999	990.912	.02
313.15	.8997	1001.933	.02
313.15	1	1011.902	.02
318.15	0	860.213	.02
318.15	.1002	880.728	.02
318.15	.2001	899.348	.02
318.15	.3001	916.356	.02
318.15	.4001	932.209	.02
318.15	.4999	946.847	.02
318.15	.5999	960.559	.02
318.15	.6999	973.398	.02
318.15	.7999	985.384	.02
318.15	.8997	996.4	.02
318.15	1	1006.358	.02
323.15	0	854.558	.02
323.15	.1002	875.1	.02
323.15	.2001	893.744	.02
323.15	.3001	910.77	.02
323.15	.4001	926.634	.02
323.15	.4999	941.277	.02
323.15	.5999	954.994	.02
323.15	.6999	967.835	.02
323.15	.7999	979.827	.02
323.15	.8997	990.842	.02
323.15	1	1000.789	.02

System: (+-)-ethyl  2-hydroxypropionate + tetrahydrofuran; phases: Liquid
Fixed: Pressure, kPa = 101
Property: Refractive index (Na D-line) (Liquid); method: Standard Abbe refractometry
Temperature, K	Mole fraction of (+-)-ethyl  2-hydroxypropionate	Refractive index (Na D-line)	uncertainty
288.15	0	1.41005	.00006
288.15	.1002	1.41059	.00006
288.15	.2001	1.41119	.00006
288.15	.3001	1.4118	.00006
288.15	.4001	1.41241	.00006
288.15	.4999	1.41298	.00006
288.15	.5999	1.41349	.00006
288.15	.6999	1.41393	.00006
288.15	.7999	1.41431	.00006
288.15	.8997	1.41475	.00006
288.15	1	1.41537	.00006
293.15	0	1.40737	.00006
293.15	.1002	1.40801	.00006
293.15	.2001	1.40867	.00006
293.15	.3001	1.40932	.00006
293.15	.4001	1.40998	.00006
293.15	.4999	1.41058	.00006
293.15	.5999	1.41112	.00006
293.15	.6999	1.41157	.00006
293.15	.7999	1.41197	.00006
293.15	.8997	1.41242	.00006
293.15	1	1.41307	.00006
298.15	0	1.40472	.00006
298.15	.1002	1.40539	.00006
298.15	.2001	1.40614	.00006
298.15	.3001	1.40687	.00006
298.15	.4001	1.40756	.00006
298.15	.4999	1.40816	.00006
298.15	.5999	1.40871	.00006
298.15	.6999	1.40922	.00006
298.15	.7999	1.40965	.00006
298.15	.8997	1.41017	.00006
298.15	1	1.41076	.00006
303.15	0	1.40203	.00006
303.15	.1002	1.40277	.00006
303.15	.2001	1.40359	.00006
303.15	.3001	1.40438	.00006
303.15	.4001	1.4051	.00006
303.15	.4999	1.40571	.00006
303.15	.5999	1.40628	.00006
303.15	.6999	1.40684	.00006
303.15	.7999	1.4073	.00006
303.15	.8997	1.40787	.00006
303.15	1	1.40843	.00006
308.15	0	1.39931	.00006
308.15	.1002	1.40015	.00006
308.15	.2001	1.40102	.00006
308.15	.3001	1.40187	.00006
308.15	.4001	1.40264	.00006
308.15	.4999	1.40326	.00006
308.15	.5999	1.40392	.00006
308.15	.6999	1.40445	.00006
308.15	.7999	1.40493	.00006
308.15	.8997	1.40546	.00006
308.15	1	1.4061	.00006
313.15	0	1.39659	.00006
313.15	.1002	1.3975	.00006
313.15	.2001	1.39842	.00006
313.15	.3001	1.39936	.00006
313.15	.4001	1.40014	.00006
313.15	.4999	1.4008	.00006
313.15	.5999	1.40149	.00006
313.15	.6999	1.40205	.00006
313.15	.7999	1.40255	.00006
313.15	.8997	1.4031	.00006
313.15	1	1.40374	.00006
318.15	0	1.3938	.00006
318.15	.1002	1.39481	.00006
318.15	.2001	1.39578	.00006
318.15	.3001	1.39672	.00006
318.15	.4001	1.39755	.00006
318.15	.4999	1.39831	.00006
318.15	.5999	1.39899	.00006
318.15	.6999	1.3996	.00006
318.15	.7999	1.40015	.00006
318.15	.8997	1.4007	.00006
318.15	1	1.40136	.00006
323.15	0	1.39098	.00006
323.15	.1002	1.39211	.00006
323.15	.2001	1.39315	.00006
323.15	.3001	1.39416	.00006
323.15	.4001	1.39503	.00006
323.15	.4999	1.39583	.00006
323.15	.5999	1.39655	.00006
323.15	.6999	1.3972	.00006
323.15	.7999	1.39778	.00006
323.15	.8997	1.39834	.00006
323.15	1	1.39898	.00006

System: (+-)-ethyl  2-hydroxypropionate + tetrahydrofuran; phases: Liquid
Fixed: Pressure, kPa = 101
Property: Viscosity, Pa*s (Liquid); method: Concentric cylinders viscometry
Temperature, K	Mole fraction of (+-)-ethyl  2-hydroxypropionate	Viscosity, Pa*s	uncertainty
288.15	0	.00052517	.00000420136
288.15	.1002	.00062672	.00000501376
288.15	.2001	.00076294	.00000610352
288.15	.3001	.00091812	.00000734496
288.15	.4001	.0010952	.0000087616
288.15	.4999	.0013127	.0000105016
288.15	.5999	.0015797	.0000126376
288.15	.6999	.0019099	.0000152792
288.15	.7999	.0023089	.0000184712
288.15	.8997	.0027542	.0000220336
288.15	1	.0032069	.0000256552
293.15	0	.00050477	.00000403816
293.15	.1002	.0005901	.0000047208
293.15	.2001	.00071277	.00000570216
293.15	.3001	.00085617	.00000684936
293.15	.4001	.0010127	.0000081016
293.15	.4999	.0012002	.0000096016
293.15	.5999	.0014261	.0000114088
293.15	.6999	.0017014	.0000136112
293.15	.7999	.0020282	.0000162256
293.15	.8997	.0023893	.0000191144
293.15	1	.0027502	.0000220016
298.15	0	.00048473	.00000387784
298.15	.1002	.0005622	.0000044976
298.15	.2001	.00067211	.00000537688
298.15	.3001	.00080034	.00000640272
298.15	.4001	.00093859	.00000750872
298.15	.4999	.0011031	.0000088248
298.15	.5999	.0012966	.0000103728
298.15	.6999	.0015273	.0000122184
298.15	.7999	.0017993	.0000143944
298.15	.8997	.0020958	.0000167664
298.15	1	.0023902	.0000191216
303.15	0	.00046403	.00000371224
303.15	.1002	.00053571	.00000428568
303.15	.2001	.00063494	.00000507952
303.15	.3001	.00074931	.00000599448
303.15	.4001	.00087213	.00000697704
303.15	.4999	.0010164	.0000081312
303.15	.5999	.0011833	.0000094664
303.15	.6999	.00138	.00001104
303.15	.7999	.0016075	.00001286
303.15	.8997	.001854	.000014832
303.15	1	.0020968	.0000167744
308.15	0	.00044333	.00000354664
308.15	.1002	.00051112	.00000408896
308.15	.2001	.00060064	.00000480512
308.15	.3001	.00070231	.00000561848
308.15	.4001	.00081219	.00000649752
308.15	.4999	.00093808	.00000750464
308.15	.5999	.001084	.000008672
308.15	.6999	.0012548	.0000100384
308.15	.7999	.0014492	.0000115936
308.15	.8997	.0016572	.0000132576
308.15	1	.0018576	.0000148608
313.15	0	.00042266	.00000338128
313.15	.1002	.00048521	.00000388168
313.15	.2001	.00056608	.00000452864
313.15	.3001	.00065899	.00000527192
313.15	.4001	.00075749	.00000605992
313.15	.4999	.00086924	.00000695392
313.15	.5999	.00099793	.00000798344
313.15	.6999	.0011463	.0000091704
313.15	.7999	.001313	.000010504
313.15	.8997	.0014894	.0000119152
313.15	1	.0016584	.0000132672
318.15	0	.00040048	.00000320384
318.15	.1002	.00045557	.00000364456
318.15	.2001	.00053051	.00000424408
318.15	.3001	.00061871	.00000494968
318.15	.4001	.00070661	.00000565288
318.15	.4999	.00080676	.00000645408
318.15	.5999	.00092001	.00000736008
318.15	.6999	.0010516	.0000084128
318.15	.7999	.0011956	.0000095648
318.15	.8997	.0013482	.0000107856
318.15	1	.0014906	.0000119248
323.15	0	.00036358	.00000290864
323.15	.1002	.00042425	.000003394
323.15	.2001	.00050026	.00000400208
323.15	.3001	.00058387	.00000467096
323.15	.4001	.0006648	.0000053184
323.15	.4999	.00075503	.00000604024
323.15	.5999	.00085649	.00000685192
323.15	.6999	.00097272	.00000778176
323.15	.7999	.0011025	.00000882
323.15	.8997	.0012349	.0000098792
323.15	1	.0013487	.0000107896

System: (+-)-ethyl  2-hydroxypropionate + 2,5,8,11,14-pentaoxapentadecane; phases: Liquid
Fixed: Pressure, kPa = 101
Property: Mass density, kg/m3 (Liquid); method: Vibrating tube method
Temperature, K	Mole fraction of (+-)-ethyl  2-hydroxypropionate	Mass density, kg/m3	uncertainty
288.15	0	1016.701	.02
288.15	.0999	1018.51	.02
288.15	.1999	1020.549	.02
288.15	.2999	1022.588	.02
288.15	.3998	1024.794	.02
288.15	.4999	1027.141	.02
288.15	.6001	1029.567	.02
288.15	.6998	1032.247	.02
288.15	.8001	1034.949	.02
288.15	.9	1037.368	.02
288.15	1	1039.275	.02
293.15	0	1012.06	.02
293.15	.0999	1013.829	.02
293.15	.1999	1015.828	.02
293.15	.2999	1017.821	.02
293.15	.3998	1019.978	.02
293.15	.4999	1022.257	.02
293.15	.6001	1024.605	.02
293.15	.6998	1027.179	.02
293.15	.8001	1029.798	.02
293.15	.9	1032.094	.02
293.15	1	1033.844	.02
298.15	0	1007.421	.02
298.15	.0999	1009.155	.02
298.15	.1999	1011.108	.02
298.15	.2999	1013.051	.02
298.15	.3998	1015.166	.02
298.15	.4999	1017.368	.02
298.15	.6001	1019.64	.02
298.15	.6998	1022.106	.02
298.15	.8001	1024.632	.02
298.15	.9	1026.803	.02
298.15	1	1028.392	.02
303.15	0	1002.787	.02
303.15	.0999	1004.479	.02
303.15	.1999	1006.389	.02
303.15	.2999	1008.28	.02
303.15	.3998	1010.342	.02
303.15	.4999	1012.474	.02
303.15	.6001	1014.663	.02
303.15	.6998	1017.031	.02
303.15	.8001	1019.451	.02
303.15	.9	1021.49	.02
303.15	1	1022.918	.02
308.15	0	998.153	.02
308.15	.0999	999.806	.02
308.15	.1999	1001.666	.02
308.15	.2999	1003.505	.02
308.15	.3998	1005.506	.02
308.15	.4999	1007.569	.02
308.15	.6001	1009.678	.02
308.15	.6998	1011.952	.02
308.15	.8001	1014.255	.02
308.15	.9	1016.157	.02
308.15	1	1017.42	.02
313.15	0	993.523	.02
313.15	.0999	995.132	.02
313.15	.1999	996.945	.02
313.15	.2999	998.729	.02
313.15	.3998	1000.64	.02
313.15	.4999	1002.66	.02
313.15	.6001	1004.68	.02
313.15	.6998	1006.866	.02
313.15	.8001	1009.041	.02
313.15	.9	1010.804	.02
313.15	1	1011.902	.02
318.15	0	988.892	.02
318.15	.0999	990.453	.02
318.15	.1999	992.217	.02
318.15	.2999	993.944	.02
318.15	.3998	995.8	.02
318.15	.4999	997.738	.02
318.15	.6001	999.671	.02
318.15	.6998	1001.771	.02
318.15	.8001	1003.809	.02
318.15	.9	1005.433	.02
318.15	1	1006.358	.02
323.15	0	984.262	.02
323.15	.0999	985.775	.02
323.15	.1999	987.487	.02
323.15	.2999	989.156	.02
323.15	.3998	990.94	.02
323.15	.4999	992.806	.02
323.15	.6001	994.651	.02
323.15	.6998	996.689	.02
323.15	.8001	998.562	.02
323.15	.9	1000.056	.02
323.15	1	1000.789	.02

System: (+-)-ethyl  2-hydroxypropionate + 2,5,8,11,14-pentaoxapentadecane; phases: Liquid
Fixed: Pressure, kPa = 101
Property: Refractive index (Na D-line) (Liquid); method: Standard Abbe refractometry
Temperature, K	Mole fraction of (+-)-ethyl  2-hydroxypropionate	Refractive index (Na D-line)	uncertainty
288.15	0	1.43553	.00006
288.15	.0999	1.43413	.00006
288.15	.1999	1.43253	.00006
288.15	.2999	1.43141	.00006
288.15	.3998	1.42997	.00006
288.15	.4999	1.42831	.00006
288.15	.6001	1.42648	.00006
288.15	.6998	1.42438	.00006
288.15	.8001	1.42214	.00006
288.15	.9	1.41886	.00006
288.15	1	1.41537	.00006
293.15	0	1.43338	.00006
293.15	.0999	1.43195	.00006
293.15	.1999	1.4304	.00006
293.15	.2999	1.42925	.00006
293.15	.3998	1.42782	.00006
293.15	.4999	1.42614	.00006
293.15	.6001	1.42431	.00006
293.15	.6998	1.42219	.00006
293.15	.8001	1.4199	.00006
293.15	.9	1.41662	.00006
293.15	1	1.41307	.00006
298.15	0	1.43123	.00006
298.15	.0999	1.42983	.00006
298.15	.1999	1.42826	.00006
298.15	.2999	1.42712	.00006
298.15	.3998	1.42566	.00006
298.15	.4999	1.42398	.00006
298.15	.6001	1.42212	.00006
298.15	.6998	1.41995	.00006
298.15	.8001	1.41764	.00006
298.15	.9	1.41436	.00006
298.15	1	1.41076	.00006
303.15	0	1.42906	.00006
303.15	.0999	1.42761	.00006
303.15	.1999	1.42612	.00006
303.15	.2999	1.42496	.00006
303.15	.3998	1.42351	.00006
303.15	.4999	1.4218	.00006
303.15	.6001	1.41993	.00006
303.15	.6998	1.41778	.00006
303.15	.8001	1.41537	.00006
303.15	.9	1.41208	.00006
303.15	1	1.40843	.00006
308.15	0	1.42697	.00006
308.15	.0999	1.42558	.00006
308.15	.1999	1.42399	.00006
308.15	.2999	1.4228	.00006
308.15	.3998	1.42135	.00006
308.15	.4999	1.41964	.00006
308.15	.6001	1.41774	.00006
308.15	.6998	1.41556	.00006
308.15	.8001	1.41312	.00006
308.15	.9	1.4098	.00006
308.15	1	1.4061	.00006
313.15	0	1.42447	.00006
313.15	.0999	1.42319	.00006
313.15	.1999	1.42182	.00006
313.15	.2999	1.42059	.00006
313.15	.3998	1.41916	.00006
313.15	.4999	1.41744	.00006
313.15	.6001	1.41552	.00006
313.15	.6998	1.41332	.00006
313.15	.8001	1.41084	.00006
313.15	.9	1.40749	.00006
313.15	1	1.40374	.00006
318.15	0	1.42206	.00006
318.15	.0999	1.42095	.00006
318.15	.1999	1.41972	.00006
318.15	.2999	1.41848	.00006
318.15	.3998	1.41703	.00006
318.15	.4999	1.41528	.00006
318.15	.6001	1.41335	.00006
318.15	.6998	1.41108	.00006
318.15	.8001	1.40853	.00006
318.15	.9	1.40517	.00006
318.15	1	1.40136	.00006
323.15	0	1.41985	.00006
323.15	.0999	1.4188	.00006
323.15	.1999	1.41762	.00006
323.15	.2999	1.41635	.00006
323.15	.3998	1.41488	.00006
323.15	.4999	1.41315	.00006
323.15	.6001	1.41119	.00006
323.15	.6998	1.40889	.00006
323.15	.8001	1.40622	.00006
323.15	.9	1.40288	.00006
323.15	1	1.39898	.00006

System: (+-)-ethyl  2-hydroxypropionate + 2,5,8,11,14-pentaoxapentadecane; phases: Liquid
Fixed: Pressure, kPa = 101
Property: Viscosity, Pa*s (Liquid); method: Concentric cylinders viscometry
Temperature, K	Mole fraction of (+-)-ethyl  2-hydroxypropionate	Viscosity, Pa*s	uncertainty
288.15	0	.0043531	.0000348248
288.15	.0999	.0043027	.0000344216
288.15	.1999	.0042652	.0000341216
288.15	.2999	.0042259	.0000338072
288.15	.3998	.0041763	.0000334104
288.15	.4999	.0041086	.0000328688
288.15	.6001	.0040268	.0000322144
288.15	.6998	.0039059	.0000312472
288.15	.8001	.0037459	.0000299672
288.15	.9	.0035298	.0000282384
288.15	1	.0032069	.0000256552
293.15	0	.0037946	.0000303568
293.15	.0999	.0037487	.0000299896
293.15	.1999	.0037129	.0000297032
293.15	.2999	.0036734	.0000293872
293.15	.3998	.0036233	.0000289864
293.15	.4999	.0035565	.000028452
293.15	.6001	.0034785	.000027828
293.15	.6998	.0033642	.0000269136
293.15	.8001	.0032192	.0000257536
293.15	.9	.0030277	.0000242216
293.15	1	.0027502	.0000220016
298.15	0	.0033481	.0000267848
298.15	.0999	.0032992	.0000263936
298.15	.1999	.0032661	.0000261288
298.15	.2999	.0032297	.0000258376
298.15	.3998	.0031806	.0000254448
298.15	.4999	.003115	.00002492
298.15	.6001	.0030356	.0000242848
298.15	.6998	.0029295	.000023436
298.15	.8001	.0027998	.0000223984
298.15	.9	.0026328	.0000210624
298.15	1	.0023902	.0000191216
303.15	0	.002983	.000023864
303.15	.0999	.0029333	.0000234664
303.15	.1999	.0029002	.0000232016
303.15	.2999	.0028636	.0000229088
303.15	.3998	.0028155	.000022524
303.15	.4999	.0027522	.0000220176
303.15	.6001	.0026812	.0000214496
303.15	.6998	.0025805	.000020644
303.15	.8001	.0024634	.0000197072
303.15	.9	.0023111	.0000184888
303.15	1	.0020968	.0000167744
308.15	0	.0026683	.0000213464
308.15	.0999	.002626	.000021008
308.15	.1999	.0025934	.0000207472
308.15	.2999	.0025574	.0000204592
308.15	.3998	.0025115	.000020092
308.15	.4999	.0024523	.0000196184
308.15	.6001	.0023851	.0000190808
308.15	.6998	.0022927	.0000183416
308.15	.8001	.0021842	.0000174736
308.15	.9	.0020463	.0000163704
308.15	1	.0018576	.0000148608
313.15	0	.0024066	.0000192528
313.15	.0999	.002367	.000018936
313.15	.1999	.0023359	.0000186872
313.15	.2999	.0023009	.0000184072
313.15	.3998	.0022572	.0000180576
313.15	.4999	.0022004	.0000176032
313.15	.6001	.0021371	.0000170968
313.15	.6998	.0020534	.0000164272
313.15	.8001	.0019533	.0000156264
313.15	.9	.0018268	.0000146144
313.15	1	.0016584	.0000132672
318.15	0	.002185	.00001748
318.15	.0999	.002147	.000017176
318.15	.1999	.0021154	.0000169232
318.15	.2999	.0020814	.0000166512
318.15	.3998	.002041	.000016328
318.15	.4999	.0019909	.0000159272
318.15	.6001	.0019321	.0000154568
318.15	.6998	.0018538	.0000148304
318.15	.8001	.0017598	.0000140784
318.15	.9	.0016422	.0000131376
318.15	1	.0014906	.0000119248
323.15	0	.0020032	.0000160256
323.15	.0999	.0019719	.0000157752
323.15	.1999	.0019432	.0000155456
323.15	.2999	.0019103	.0000152824
323.15	.3998	.0018696	.0000149568
323.15	.4999	.001818	.000014544
323.15	.6001	.0017631	.0000141048
323.15	.6998	.0016905	.000013524
323.15	.8001	.0016045	.000012836
323.15	.9	.0014963	.0000119704
323.15	1	.0013487	.0000107896
