Measured thermophysical data. Isothermal vapor liquid equilibria for the pentafluoroethane + propane and  pentafluoroethane + 1,1,1,2,3,3,3-heptafluoropropane systems
Source: Fluid Phase Equilib., 2010, 10.1016/j.fluid.2009.09.008
Compound 1: pentafluoroethane, C2HF5, purity 99.9%
Compound 2: propane, C3H8, purity 99.9%
Compound 3: 1,1,1,2,3,3,3-heptafluoropropane, C3HF7, purity 99.9%

System: pentafluoroethane; phases: Liquid, Gas
Property: Vapor or sublimation pressure, kPa (Liquid); method: Ebulliometric method (Recirculating still)
Temperature, K	Vapor or sublimation pressure, kPa	uncertainty
263.15	482.4	.6
278.15	782.1	.6
293.15	1205.6	.6
308.15	1773.2	.6
323.15	2531.1	.6

System: propane; phases: Liquid, Gas
Property: Vapor or sublimation pressure, kPa (Liquid); method: Ebulliometric method (Recirculating still)
Temperature, K	Vapor or sublimation pressure, kPa	uncertainty
263.15	345.9	.6
278.15	552.7	.6
293.15	839.7	.6
308.15	1217.2	.6
323.15	1714.5	.6

System: 1,1,1,2,3,3,3-heptafluoropropane; phases: Liquid, Gas
Property: Vapor or sublimation pressure, kPa (Liquid); method: Ebulliometric method (Recirculating still)
Temperature, K	Vapor or sublimation pressure, kPa	uncertainty
263.15	132.4	.6
278.15	235.2	.6
293.15	389.4	.6
308.15	608.3	.6
323.15	912.1	.6

System: propane + pentafluoroethane; phases: Liquid, Gas
Property: Vapor or sublimation pressure, kPa (Liquid); method: Ebulliometric method (Recirculating still)
Mole fraction of pentafluoroethane	Temperature, K	Vapor or sublimation pressure, kPa	uncertainty
0	263.15	345.9	.6
.0538	263.15	432.2	.6
.1763	263.15	531.4	.6
.2804	263.15	575.7	.6
.3819	263.15	596.9	.6
.481	263.15	605.4	.6
.5878	263.15	606.5	.6
.6635	263.15	606.6	.6
.8549	263.15	580.6	.6
.936	263.15	537.6	.6
1	263.15	482.4	.6
0	278.15	552.7	.6
.0836	278.15	704.9	.6
.1673	278.15	798.9	.6
.2764	278.15	876.6	.6
.3601	278.15	902.9	.6
.4883	278.15	940.2	.6
.6067	278.15	953.5	.6
.6913	278.15	952.1	.6
.8227	278.15	926.9	.6
.9546	278.15	840.7	.6
1	278.15	782.1	.6
0	293.15	839.7	.6
.0425	293.15	951.5	.6
.0757	293.15	1034.4	.6
.1973	293.15	1217.4	.6
.2843	293.15	1301.7	.6
.6063	293.15	1424.9	.6
.6513	293.15	1427.1	.6
.7419	293.15	1416.5	.6
.8646	293.15	1359.5	.6
.9519	293.15	1280.9	.6
1	293.15	1205.6	.6
0	308.15	1217.2	.6
.1424	308.15	1615.3	.6
.1942	308.15	1703.8	.6
.4407	308.15	1981.1	.6
.5671	308.15	2039.7	.6
.6404	308.15	2051.6	.6
.7125	308.15	2048.2	.6
.7838	308.15	2026.7	.6
.8644	308.15	1973.1	.6
.9603	308.15	1846	.6
1	308.15	1773.2	.6
0	323.15	1714.5	.6
.1333	323.15	2193.5	.6
.2762	323.15	2527.6	.6
.417	323.15	2725.8	.6
.5823	323.15	2858.7	.6
.6378	323.15	2876.7	.6
.6833	323.15	2881	.6
.7264	323.15	2875.4	.6
.7871	323.15	2850.3	.6
.8555	323.15	2793.3	.6
.9072	323.15	2723.7	.6
1	323.15	2531.1	.6

System: propane + pentafluoroethane; phases: Gas, Liquid
Property: Mole fraction of pentafluoroethane (Gas); method: Chromatography
Mole fraction of pentafluoroethane	Temperature, K	Mole fraction of pentafluoroethane	uncertainty
0	263.15	0	.001
.0538	263.15	.2184	.001
.1763	263.15	.4182	.001
.2804	263.15	.4918	.001
.3819	263.15	.5182	.001
.481	263.15	.5537	.001
.5878	263.15	.6052	.001
.6635	263.15	.6333	.001
.8549	263.15	.7418	.001
.936	263.15	.8568	.001
1	263.15	1	.001
0	278.15	0	.001
.0836	278.15	.2532	.001
.1673	278.15	.3747	.001
.2764	278.15	.4529	.001
.3601	278.15	.4931	.001
.4883	278.15	.5591	.001
.6067	278.15	.6203	.001
.6913	278.15	.6613	.001
.8227	278.15	.76	.001
.9546	278.15	.9096	.001
1	278.15	1	.001
0	293.15	0	.001
.0425	293.15	.1278	.001
.0757	293.15	.2022	.001
.1973	293.15	.3749	.001
.2843	293.15	.4427	.001
.6063	293.15	.6229	.001
.6513	293.15	.652	.001
.7419	293.15	.7122	.001
.8646	293.15	.8211	.001
.9519	293.15	.9237	.001
1	293.15	1	.001
0	308.15	0	.001
.1424	308.15	.2859	.001
.1942	308.15	.3413	.001
.4407	308.15	.5099	.001
.5671	308.15	.5967	.001
.6404	308.15	.6474	.001
.7125	308.15	.701	.001
.7838	308.15	.7549	.001
.8644	308.15	.8323	.001
.9603	308.15	.9463	.001
1	308.15	1	.001
0	323.15	0	.001
.1333	323.15	.2427	.001
.2762	323.15	.3827	.001
.417	323.15	.4809	.001
.5823	323.15	.6064	.001
.6378	323.15	.6484	.001
.6833	323.15	.6835	.001
.7264	323.15	.7179	.001
.7871	323.15	.7692	.001
.8555	323.15	.8337	.001
.9072	323.15	.8873	.001
1	323.15	1	.001

System: propane + pentafluoroethane; phases: Liquid, Gas
Property: Azeotropic composition: mole fraction of pentafluoroethane (Liquid); method: By T or P extreme
Temperature, K	Azeotropic composition: mole fraction of pentafluoroethane	uncertainty
263.15	.5979	.001
278.15	.6171	.001
293.15	.6328	.001
308.15	.6525	.001
323.15	.6674	.001

System: propane + pentafluoroethane; phases: Liquid, Gas
Property: Azeotropic pressure, kPa (Liquid); method: By P(X) extreme
Temperature, K	Azeotropic pressure, kPa	uncertainty
263.15	610.7	.6
278.15	949	.6
293.15	1425.4	.6
308.15	2047.3	.6
323.15	2876.6	.6

System: pentafluoroethane + 1,1,1,2,3,3,3-heptafluoropropane; phases: Liquid, Gas
Property: Vapor or sublimation pressure, kPa (Liquid); method: Twin ebulliometer
Mole fraction of pentafluoroethane	Temperature, K	Vapor or sublimation pressure, kPa	uncertainty
0	278.15	235.2	.6
.1081	278.15	286.7	.6
.2416	278.15	365.1	.6
.3861	278.15	441.5	.6
.5318	278.15	517.1	.6
.5979	278.15	547.9	.6
.6675	278.15	588.2	.6
.7497	278.15	640.2	.6
.7984	278.15	672	.6
.8828	278.15	718.9	.6
1	278.15	782.1	.6
0	293.15	389.4	.6
.051	293.15	431.2	.6
.2353	293.15	564.8	.6
.3337	293.15	634.7	.6
.4265	293.15	720.3	.6
.5104	293.15	780.8	.6
.5833	293.15	841.7	.6
.6626	293.15	910.3	.6
.7446	293.15	984.7	.6
.8781	293.15	1098.9	.6
1	293.15	1205.6	.6
0	308.15	608.3	.6
.1142	308.15	725.6	.6
.24	308.15	859	.6
.3468	308.15	970.7	.6
.4431	308.15	1065	.6
.5606	308.15	1214.7	.6
.6419	308.15	1316	.6
.7419	308.15	1435.4	.6
.8255	308.15	1535.3	.6
.8491	308.15	1573.5	.6
.9631	308.15	1721.9	.6
1	308.15	1773.2	.6
0	323.15	912.1	.6
.0642	323.15	999.8	.6
.2302	323.15	1227.2	.6
.3108	323.15	1346.1	.6
.4228	323.15	1515.1	.6
.5095	323.15	1637.4	.6
.6091	323.15	1801	.6
.705	323.15	1972.6	.6
.7642	323.15	2079.8	.6
.8751	323.15	2271.1	.6
.9587	323.15	2436.3	.6
1	323.15	2531.1	.6

System: pentafluoroethane + 1,1,1,2,3,3,3-heptafluoropropane; phases: Gas, Liquid
Property: Mole fraction of pentafluoroethane (Gas); method: Chromatography
Mole fraction of pentafluoroethane	Temperature, K	Mole fraction of pentafluoroethane	uncertainty
0	278.15	0	.001
.1081	278.15	.2589	.001
.2416	278.15	.4833	.001
.3861	278.15	.6323	.001
.5318	278.15	.7536	.001
.5979	278.15	.7965	.001
.6675	278.15	.843	.001
.7497	278.15	.893	.001
.7984	278.15	.9144	.001
.8828	278.15	.9538	.001
1	278.15	1	.001
0	293.15	0	.001
.051	293.15	.1299	.001
.2353	293.15	.4413	.001
.3337	293.15	.5558	.001
.4265	293.15	.6551	.001
.5104	293.15	.7279	.001
.5833	293.15	.7798	.001
.6626	293.15	.8281	.001
.7446	293.15	.865	.001
.8781	293.15	.9377	.001
1	293.15	1	.001
0	308.15	0	.001
.1142	308.15	.2366	.001
.24	308.15	.4236	.001
.3468	308.15	.5419	.001
.4431	308.15	.6368	.001
.5606	308.15	.7281	.001
.6419	308.15	.7977	.001
.7419	308.15	.8581	.001
.8255	308.15	.9071	.001
.8491	308.15	.9209	.001
.9631	308.15	.9778	.001
1	308.15	1	.001
0	323.15	0	.001
.0642	323.15	.1194	.001
.2302	323.15	.376	.001
.3108	323.15	.4736	.001
.4228	323.15	.588	.001
.5095	323.15	.6617	.001
.6091	323.15	.7412	.001
.705	323.15	.8122	.001
.7642	323.15	.8516	.001
.8751	323.15	.9214	.001
.9587	323.15	.9725	.001
1	323.15	1	.001
