Measured thermophysical data. Separation of toluene from n-heptane using monocationic and dicationic ionic  liquids
Source: Fluid Phase Equilib., 2013, 10.1016/j.fluid.2012.12.034
Compound 1: methylbenzene, C7H8, purity 98%
Compound 2: n-heptane, C7H16, purity 96%
Compound 3: 1-methylimidazolium hydrogen sulfate, C4H8N2O4S, purity 95%
Compound 4: 1-butyl-3-methylimidazolium hydrogen sulfate, C8H16N2O4S, purity 95%
Compound 5: 1H-Imidazolium, 3,3'-(1,3-propanediyl)bis[4,5-dihydro-1-methyl-, sulfate (1:2), C11H24N4O8S2, purity 95%
Compound 6: bis-(3-methyl-1-imidazole)-hexylene hydrogen sulphate, C14H26N4O8S2, purity 95%

System: methylbenzene + n-heptane + 1-methylimidazolium hydrogen sulfate; phases: Liquid mixture 2, Liquid mixture 1, Liquid
Property: Mole fraction of methylbenzene (Liquid mixture 2); method: Chromatography
Property: Mole fraction of n-heptane (Liquid mixture 2); method: Chromatography
Property: Mole fraction of methylbenzene (Liquid mixture 1); method: Chromatography
Property: Mole fraction of n-heptane (Liquid mixture 1); method: Chromatography
Temperature, K	Pressure, kPa	Mole fraction of methylbenzene	uncertainty	Mole fraction of n-heptane	uncertainty	Mole fraction of methylbenzene	uncertainty	Mole fraction of n-heptane	uncertainty
303.15	101.325	.0339	.0003	.0085	.0003	.0899	.0003	.9101	.0003
303.15	101.325	.1681	.0003	.0053	.0003	.8256	.0003	.1744	.0003
303.15	101.325	.1883	.0003	.07	.0003	.9023	.0003	.0977	.0003
303.15	101.325	.1921	.0003	.0068	.0003	.9601	.0003	.0399	.0003
303.15	101.325	.0335	.0003	.0097	.0003	.0791	.0003	.9209	.0003
303.15	101.325	.0461	.0003	.0092	.0003	.1474	.0003	.8526	.0003
303.15	101.325	.0585	.0003	.0098	.0003	.1873	.0003	.8127	.0003
303.15	101.325	.0656	.0003	.0096	.0003	.2167	.0003	.7833	.0003
303.15	101.325	.0853	.0003	.009	.0003	.3155	.0003	.6844	.0003
303.15	101.325	.0952	.0003	.0094	.0003	.4534	.0003	.5466	.0003
303.15	101.325	.1312	.0003	.0061	.0003	.6512	.0003	.3488	.0003
303.15	101.325	.1466	.0003	.0059	.0003	.7344	.0003	.2656	.0003

System: methylbenzene + n-heptane + 1-butyl-3-methylimidazolium hydrogen sulfate; phases: Liquid mixture 2, Liquid mixture 1, Liquid
Property: Mole fraction of methylbenzene (Liquid mixture 2); method: Chromatography
Property: Mole fraction of n-heptane (Liquid mixture 2); method: Chromatography
Property: Mole fraction of methylbenzene (Liquid mixture 1); method: Chromatography
Property: Mole fraction of n-heptane (Liquid mixture 1); method: Chromatography
Temperature, K	Pressure, kPa	Mole fraction of methylbenzene	uncertainty	Mole fraction of n-heptane	uncertainty	Mole fraction of methylbenzene	uncertainty	Mole fraction of n-heptane	uncertainty
303.15	101.325	.0251	.0003	.0096	.0003	.0511	.0003	.9489	.0003
303.15	101.325	.2102	.0003	.0073	.0003	.8272	.0003	.1728	.0003
303.15	101.325	.2323	.0003	.0071	.0003	.9011	.0003	.0989	.0003
303.15	101.325	.2441	.0003	.007	.0003	.9623	.0003	.0377	.0003
303.15	101.325	.0331	.0003	.0096	.0003	.0681	.0003	.9319	.0003
303.15	101.325	.0362	.0003	.0091	.0003	.0814	.0003	.9186	.0003
303.15	101.325	.0553	.0003	.0079	.0003	.1421	.0003	.8579	.0003
303.15	101.325	.0605	.0003	.008	.0003	.1682	.0003	.8318	.0003
303.15	101.325	.0632	.0003	.0081	.0003	.1822	.0003	.8178	.0003
303.15	101.325	.0721	.0003	.008	.0003	.2151	.0003	.7849	.0003
303.15	101.325	.0873	.0003	.0078	.0003	.421	.0003	.579	.0003
303.15	101.325	.1661	.0003	.0077	.0003	.682	.0003	.318	.0003

System: methylbenzene + n-heptane + 1H-Imidazolium, 3,3'-(1,3-propanediyl)bis[4,5-dihydro-1-methyl-, sulfate (1:2); phases: Liquid mixture 2, Liquid mixture 1, Liquid
Property: Mole fraction of methylbenzene (Liquid mixture 2); method: Chromatography
Property: Mole fraction of n-heptane (Liquid mixture 2); method: Chromatography
Property: Mole fraction of methylbenzene (Liquid mixture 1); method: Chromatography
Property: Mole fraction of n-heptane (Liquid mixture 1); method: Chromatography
Temperature, K	Pressure, kPa	Mole fraction of methylbenzene	uncertainty	Mole fraction of n-heptane	uncertainty	Mole fraction of methylbenzene	uncertainty	Mole fraction of n-heptane	uncertainty
303.15	101.325	.0251	.0003	.0084	.0003	.0371	.0003	.9629	.0003
303.15	101.325	.1971	.0003	.0062	.0003	.6261	.0003	.3739	.0003
303.15	101.325	.1851	.0003	.0065	.0003	.7322	.0003	.2678	.0003
303.15	101.325	.2032	.0003	.004	.0003	.85	.0003	.15	.0003
303.15	101.325	.0332	.0003	.0089	.0003	.0591	.0003	.9409	.0003
303.15	101.325	.0363	.0003	.0085	.0003	.0621	.0003	.9379	.0003
303.15	101.325	.0399	.0003	.0083	.0003	.0832	.0003	.9168	.0003
303.15	101.325	.0401	.0003	.0082	.0003	.0901	.0003	.9099	.0003
303.15	101.325	.0691	.0003	.0082	.0003	.1622	.0003	.8378	.0003
303.15	101.325	.0734	.0003	.0083	.0003	.1924	.0003	.8176	.0003
303.15	101.325	.0719	.0003	.0082	.0003	.2312	.0003	.7688	.0003
303.15	101.325	.1455	.0003	.0078	.0003	.4402	.0003	.5598	.0003

System: methylbenzene + n-heptane + bis-(3-methyl-1-imidazole)-hexylene hydrogen sulphate; phases: Liquid mixture 2, Liquid mixture 1, Liquid
Property: Mole fraction of methylbenzene (Liquid mixture 2); method: Chromatography
Property: Mole fraction of n-heptane (Liquid mixture 2); method: Chromatography
Property: Mole fraction of methylbenzene (Liquid mixture 1); method: Chromatography
Property: Mole fraction of n-heptane (Liquid mixture 1); method: Chromatography
Temperature, K	Pressure, kPa	Mole fraction of methylbenzene	uncertainty	Mole fraction of n-heptane	uncertainty	Mole fraction of methylbenzene	uncertainty	Mole fraction of n-heptane	uncertainty
303.15	101.325	.0385	.0003	.0083	.0003	.0481	.0003	.9519	.0003
303.15	101.325	.1812	.0003	.0074	.0003	.5052	.0003	.4948	.0003
303.15	101.325	.2121	.0003	.0072	.0003	.6213	.0003	.3787	.0003
303.15	101.325	.2552	.0003	.0074	.0003	.8421	.0003	.1579	.0003
303.15	101.325	.0405	.0003	.0085	.0003	.0559	.0003	.9441	.0003
303.15	101.325	.0516	.0003	.0079	.0003	.0891	.0003	.9109	.0003
303.15	101.325	.0571	.0003	.008	.0003	.0993	.0003	.9007	.0003
303.15	101.325	.0735	.0003	.008	.0003	.1354	.0003	.8646	.0003
303.15	101.325	.0772	.0003	.0081	.0003	.1536	.0003	.8464	.0003
303.15	101.325	.0836	.0003	.008	.0003	.1722	.0003	.8278	.0003
303.15	101.325	.0995	.0003	.0079	.0003	.2218	.0003	.7782	.0003
303.15	101.325	.1543	.0003	.008	.0003	.4211	.0003	.5789	.0003
