Measured thermophysical data. Study of the phase equilibrium of the water + 2-propanol + 1- undecanol ternary system between 275.15 K and 288.15 K. Comparison with the water + ethanol + 1-undecanol System
Source: Fluid Phase Equilib., 2016, 10.1016/j.fluid.2016.01.025
Compound 1: 2-propanol, C3H8O, purity 99.9%
Compound 2: 1-undecanol, C11H24O, purity 98%
Compound 3: water, H2O, purity 99.8%

System: 2-propanol + 1-undecanol + water; phases: Liquid mixture 1, Liquid mixture 2
Fixed: Pressure, kPa = 101
Property: Mole fraction of 2-propanol (Liquid mixture 1); method: Chromatography
Property: Mole fraction of water (Liquid mixture 2); method: Chromatography
Property: Mole fraction of 2-propanol (Liquid mixture 2); method: Chromatography
Temperature, K	Mole fraction of water	Mole fraction of 2-propanol	uncertainty	Mole fraction of water	uncertainty	Mole fraction of 2-propanol	uncertainty
288.15	1	0	0	.035	.0007	0	0
288.15	.755	.245	.0049	.127	.00254	.346	.00692
288.15	.723	.275	.0055	.183	.00366	.412	.00824
281.15	.868	.132	.00264	.048	.00096	.106	.00212
288.15	.649	.33	.0066	.288	.00576	.45	.009
288.15	.558	.398	.00796	.396	.00792	.451	.00902
281.15	.821	.179	.00358	.06	.0012	.172	.00344
281.15	.783	.217	.00434	.086	.00172	.265	.0053
281.15	.763	.236	.00472	.108	.00216	.317	.00634
281.15	.713	.283	.00566	.183	.00366	.417	.00834
281.15	.66	.325	.0065	.217	.00434	.455	.0091
275.15	.731	.269	.00538	.132	.00264	.363	.00726
281.15	.624	.36	.0072	.284	.00568	.461	.00922
275.15	.776	.224	.00448	.097	.00194	.288	.00576
275.15	.707	.291	.00582	.19	.0038	.422	.00844
288.15	.942	.058	.00116	.04	.0008	.031	.00062
275.15	.673	.317	.00634	.243	.00486	.451	.00902
275.15	.569	.385	.0077	.345	.0069	.453	.00906
288.15	.872	.127	.00254	.052	.00104	.122	.00244
288.15	.828	.171	.00342	.062	.00124	.189	.00378
288.15	.796	.204	.00408	.089	.00178	.261	.00522
