Measured thermophysical data. Experimental and calculated liquid-liquid equilibrium data for water + furfural + solvents
Source: Fluid Phase Equilib., 2012, 10.1016/j.fluid.2012.07.032
Compound 1: water, H2O, purity 99.8%
Compound 2: 2-furaldehyde, C5H4O2, purity 99%
Compound 3: 1-butanol, C4H10O, purity 99.5%
Compound 4: ethyl ethanoate, C4H8O2, purity 99.5%
Compound 5: propyl ethanoate, C5H10O2, purity 99.8%

System: water; phases: Liquid
Fixed: Pressure, kPa = 101.325
Property: Mass density, kg/m3 (Liquid); method: Vibrating tube method
Temperature, K	Mass density, kg/m3	uncertainty
288.2	999.105	.005
303.2	995.661	.005
318.2	990.17	.005

System: water; phases: Liquid
Fixed: Pressure, kPa = 101.325
Property: Refractive index (Na D-line) (Liquid); method: Standard Abbe refractometry
Temperature, K	Refractive index (Na D-line)	uncertainty
288.2	1.3334	.0001
303.2	1.3319	.0001
318.2	1.3298	.0001

System: 2-furaldehyde; phases: Liquid
Fixed: Pressure, kPa = 101.325
Property: Mass density, kg/m3 (Liquid); method: Vibrating tube method
Temperature, K	Mass density, kg/m3	uncertainty
288.2	1165.243	.005
303.2	1149.766	.005
318.2	1133.829	.005

System: 2-furaldehyde; phases: Liquid
Fixed: Pressure, kPa = 101.325
Property: Refractive index (Na D-line) (Liquid); method: Standard Abbe refractometry
Temperature, K	Refractive index (Na D-line)	uncertainty
288.2	1.528	.0001
303.2	1.5206	.0001
318.2	1.5133	.0001

System: 1-butanol; phases: Liquid
Fixed: Pressure, kPa = 101.325
Property: Mass density, kg/m3 (Liquid); method: Vibrating tube method
Temperature, K	Mass density, kg/m3	uncertainty
288.2	813.82	.005
303.2	802.407	.005
318.2	790.724	.005

System: 1-butanol; phases: Liquid
Fixed: Pressure, kPa = 101.325
Property: Refractive index (Na D-line) (Liquid); method: Standard Abbe refractometry
Temperature, K	Refractive index (Na D-line)	uncertainty
288.2	1.4013	.0001
303.2	1.3952	.0001
318.2	1.3892	.0001

System: ethyl ethanoate; phases: Liquid
Fixed: Pressure, kPa = 101.325
Property: Mass density, kg/m3 (Liquid); method: Vibrating tube method
Temperature, K	Mass density, kg/m3	uncertainty
288.2	906.89	.005
303.2	888.196	.005
318.2	869.522	.005

System: ethyl ethanoate; phases: Liquid
Fixed: Pressure, kPa = 101.325
Property: Refractive index (Na D-line) (Liquid); method: Standard Abbe refractometry
Temperature, K	Refractive index (Na D-line)	uncertainty
288.2	1.3749	.0001
303.2	1.3672	.0001
318.2	1.3594	.0001

System: propyl ethanoate; phases: Liquid
Fixed: Pressure, kPa = 101.325
Property: Mass density, kg/m3 (Liquid); method: Vibrating tube method
Temperature, K	Mass density, kg/m3	uncertainty
288.2	894.325	.005
303.2	877.529	.005
318.2	860.512	.005

System: propyl ethanoate; phases: Liquid
Fixed: Pressure, kPa = 101.325
Property: Refractive index (Na D-line) (Liquid); method: Standard Abbe refractometry
Temperature, K	Refractive index (Na D-line)	uncertainty
288.2	1.3866	.0001
303.2	1.3792	.0001
318.2	1.3717	.0001

System: ethyl ethanoate + water; phases: Liquid mixture 1, Liquid mixture 2
Fixed: Pressure, kPa = 101
Property: Mole fraction of ethyl ethanoate (Liquid mixture 1); method: Density calibration data
Temperature, K	Mole fraction of ethyl ethanoate	uncertainty
288.2	.0194	.0002
303.2	.0166	.0002
318.2	.0142	.0002

System: ethyl ethanoate + water; phases: Liquid mixture 1, Liquid mixture 2
Fixed: Pressure, kPa = 101
Property: Mole fraction of water (Liquid mixture 1); method: Density calibration data
Temperature, K	Mole fraction of water	uncertainty
288.2	.1255	.0002
303.2	.1492	.0002
318.2	.194	.0002

System: propyl ethanoate + water; phases: Liquid mixture 1, Liquid mixture 2
Fixed: Pressure, kPa = 101
Property: Mole fraction of propyl ethanoate (Liquid mixture 1); method: Density calibration data
Temperature, K	Mole fraction of propyl ethanoate	uncertainty
288.2	.0046	.0002
303.2	.0038	.0002

System: propyl ethanoate + water; phases: Liquid mixture 1, Liquid mixture 2
Fixed: Pressure, kPa = 101
Property: Mole fraction of water (Liquid mixture 1); method: Density calibration data
Temperature, K	Mole fraction of water	uncertainty
288.2	.0805	.0002
303.2	.1033	.0002

System: 1-butanol + water; phases: Liquid mixture 1, Liquid mixture 2
Fixed: Pressure, kPa = 101
Property: Mole fraction of 1-butanol (Liquid mixture 1); method: Density calibration data
Temperature, K	Mole fraction of 1-butanol	uncertainty
298.2	.0189	.0002

System: 1-butanol + water; phases: Liquid mixture 1, Liquid mixture 2
Fixed: Pressure, kPa = 101
Property: Mole fraction of water (Liquid mixture 1); method: Density calibration data
Temperature, K	Mole fraction of water	uncertainty
298.2	.5105	.0002

System: 2-furaldehyde + water; phases: Liquid mixture 1, Liquid mixture 2
Fixed: Pressure, kPa = 101
Property: Mole fraction of 2-furaldehyde (Liquid mixture 1); method: Density calibration data
Temperature, K	Mole fraction of 2-furaldehyde	uncertainty
288.2	.0138	.0002
298.2	.0144	.0002
303.2	.0165	.0002
318.2	.0166	.0002

System: 2-furaldehyde + water; phases: Liquid mixture 1, Liquid mixture 2
Fixed: Pressure, kPa = 101
Property: Mole fraction of water (Liquid mixture 1); method: Density calibration data
Temperature, K	Mole fraction of water	uncertainty
288.2	.1971	.0002
298.2	.1838	.0002
303.2	.2516	.0002
318.2	.2846	.0002

System: 1-butanol + 2-furaldehyde + water; phases: Liquid
Fixed: Temperature, K = 298.15
Fixed: Pressure, kPa = 101
Property: Mass density, kg/m3 (Liquid); method: Vibrating tube method
Mass fraction of water	Mass fraction of 2-furaldehyde	Mass density, kg/m3	uncertainty
.2043	0	844.288	.005
.2109	.0712	866.108	.005
.2232	.149	890.999	.005
.2289	.1942	905.656	.005
.2237	.3016	938.902	.005
.2127	.3913	966.526	.005
.1697	.537	1008.879	.005
.1229	.7014	1060.619	.005
.0999	.8152	1099.912	.005
.0405	.9595	1147.043	.005

System: 1-butanol + 2-furaldehyde + water; phases: Liquid
Fixed: Temperature, K = 298.15
Fixed: Pressure, kPa = 101
Property: Mass density, kg/m3 (Liquid); method: Vibrating tube method
Mass fraction of water	Mass fraction of 2-furaldehyde	Mass density, kg/m3	uncertainty
.9267	0	986.15	.005
.9092	.0213	989.449	.005
.8863	.0441	994.014	.005
.8863	.0521	996.677	.005
.8965	.0685	1003.435	.005
.9278	.0722	1009.93	.005

System: 1-butanol + 2-furaldehyde + water; phases: Liquid mixture 2, Liquid mixture 1
Property: Mass fraction of water (Liquid mixture 2); method: Other
Property: Mass fraction of 2-furaldehyde (Liquid mixture 1); method: Other
Property: Mass fraction of water (Liquid mixture 1); method: Other
Temperature, K	Pressure, kPa	Mass fraction of 2-furaldehyde	Mass fraction of water	uncertainty	Mass fraction of 2-furaldehyde	uncertainty	Mass fraction of water	uncertainty
298.15	101.325	.0029	.978	.0002	.0281	.0002	.5211	.0002
298.15	101.325	.0067	.9723	.0002	.0667	.0002	.5435	.0002
298.15	101.325	.0086	.9725	.0002	.1005	.0002	.5568	.0002
298.15	101.325	.0111	.9708	.0002	.149	.0002	.5662	.0002
298.15	101.325	.0126	.9699	.0002	.1822	.0002	.5554	.0002
298.15	101.325	.0142	.9699	.0002	.2334	.0002	.5401	.0002
298.15	101.325	.0161	.9706	.0002	.3291	.0002	.4942	.0002
298.15	101.325	.0179	.9768	.0002	.5971	.0002	.3445	.0002

System: 1-butanol + 2-furaldehyde + water; phases: Liquid
Fixed: Pressure, kPa = 101
Fixed: Temperature, K = 298.15
Property: Refractive index (Na D-line) (Liquid); method: Standard Abbe refractometry
Mass fraction of water	Mass fraction of 2-furaldehyde	Refractive index (Na D-line)	uncertainty
.2043	0	1.3886	.0001
.2109	.0712	1.3949	.0001
.2232	.149	1.4023	.0001
.2289	.1942	1.4069	.0001
.2237	.3016	1.4192	.0001
.2127	.3913	1.4306	.0001
.1697	.537	1.4507	.0001
.1229	.7014	1.4756	.0001
.0999	.8152	1.4962	.0001
.0405	.9595	1.5139	.0001

System: 1-butanol + 2-furaldehyde + water; phases: Liquid
Fixed: Pressure, kPa = 101
Fixed: Temperature, K = 298.15
Property: Refractive index (Na D-line) (Liquid); method: Standard Abbe refractometry
Mass fraction of water	Mass fraction of 2-furaldehyde	Refractive index (Na D-line)	uncertainty
.9267	0	1.3404	.0001
.9092	.0213	1.3428	.0001
.8863	.0441	1.3478	.0001
.8863	.0521	1.3484	.0001
.8965	.0685	1.3489	.0001
.9278	.0722	1.3458	.0001

System: 2-furaldehyde + ethyl ethanoate + water; phases: Liquid mixture 2, Liquid mixture 1
Property: Mass fraction of water (Liquid mixture 2); method: Other
Property: Mass fraction of 2-furaldehyde (Liquid mixture 1); method: Other
Property: Mass fraction of water (Liquid mixture 1); method: Other
Temperature, K	Pressure, kPa	Mass fraction of 2-furaldehyde	Mass fraction of water	uncertainty	Mass fraction of 2-furaldehyde	uncertainty	Mass fraction of water	uncertainty
288.2	101.325	.002	.9789	.0004	.0967	.0004	.1396	.0004
303.2	101.325	.0104	.9785	.0004	.2345	.0004	.1052	.0004
303.2	101.325	.0128	.9852	.0004	.2474	.0004	.1361	.0004
303.2	101.325	.0169	.9824	.0004	.2466	.0004	.1713	.0004
318.2	101.325	.0023	.9856	.0004	.0939	.0004	.2013	.0004
318.2	101.325	.0062	.9832	.0004	.2263	.0004	.2329	.0004
318.2	101.325	.0084	.9819	.0004	.2922	.0004	.2406	.0004
318.2	101.325	.011	.9795	.0004	.3504	.0004	.2621	.0004
318.2	101.325	.0117	.98	.0004	.3963	.0004	.2609	.0004
318.2	101.325	.0139	.9787	.0004	.4497	.0004	.2737	.0004
318.2	101.325	.0147	.9797	.0004	.4989	.0004	.2717	.0004
288.2	101.325	.004	.9797	.0004	.1708	.0004	.1522	.0004
288.2	101.325	.0064	.9797	.0004	.2734	.0004	.1606	.0004
288.2	101.325	.0084	.981	.0004	.3527	.0004	.1774	.0004
288.2	101.325	.011	.9808	.0004	.4801	.0004	.1895	.0004
288.2	101.325	.014	.982	.0004	.6166	.0004	.2	.0004
303.2	101.325	.0022	.9854	.0004	.1777	.0004	.0238	.0004
303.2	101.325	.0054	.9814	.0004	.1958	.0004	.0548	.0004
303.2	101.325	.0084	.9799	.0004	.2095	.0004	.0863	.0004

System: 2-furaldehyde + ethyl ethanoate + water; phases: Liquid
Fixed: Pressure, kPa = 101
Property: Mass density, kg/m3 (Liquid); method: Vibrating tube method
Temperature, K	Mass fraction of water	Mass fraction of 2-furaldehyde	Mass density, kg/m3	uncertainty
288.2	.0152	0	896.059	.005
288.2	.021	.1067	920.963	.005
288.2	.0219	.2483	956.222	.005
288.2	.0302	.3969	993.529	.005
288.2	.0308	.4863	1017.406	.005
288.2	.0354	.5158	1025.925	.005
288.2	.0369	.6279	1058.363	.005
288.2	.044	.956	1148.681	.005
303.2	.0199	0	879.813	.005
303.2	.029	.1161	907.566	.005
303.2	.0357	.2407	938.556	.005
303.2	.0324	.3484	965.924	.005
303.2	.0401	.4773	1000.678	.005
303.2	.0439	.5543	1022.566	.005
303.2	.0472	.6735	1058.751	.005
303.2	.0478	.8096	1098.063	.005
303.2	.0593	.9407	1141.614	.005

System: 2-furaldehyde + ethyl ethanoate + water; phases: Liquid
Fixed: Pressure, kPa = 101
Property: Mass density, kg/m3 (Liquid); method: Vibrating tube method
Temperature, K	Mass fraction of water	Mass fraction of 2-furaldehyde	Mass density, kg/m3	uncertainty
288.2	.9745	0	998.736	.0005
288.2	.9574	.0197	1002.896	.0005
288.2	.9398	.0439	1007.067	.0005
288.2	.9319	.0634	1011.314	.0005
288.2	.9305	.0695	1012.248	.0005
303.2	.9789	0	995.046	.0005
303.2	.9516	.0272	999.451	.0005
303.2	.9387	.05	1003.656	.0005
303.2	.9264	.066	1006.554	.0005
303.2	.9173	.0827	1009.532	.0005

System: 2-furaldehyde + ethyl ethanoate + water; phases: Liquid
Fixed: Pressure, kPa = 101
Property: Refractive index (Na D-line) (Liquid); method: Standard Abbe refractometry
Temperature, K	Mass fraction of water	Mass fraction of 2-furaldehyde	Refractive index (Na D-line)	uncertainty
288.2	.0285	0	1.3747	.0001
288.2	.0292	.1507	1.3955	.0001
288.2	.0307	.1777	1.399	.0001
288.2	.0326	.2242	1.4054	.0001
288.2	.0361	.3151	1.4184	.0001
288.2	.0363	.4068	1.4318	.0001
288.2	.0419	.5217	1.45	.0001
288.2	.0447	.8131	1.4963	.0001
288.2	.044	.956	1.5203	.0001
303.2	.0346	0	1.3673	.0001
303.2	.0404	.1157	1.3826	.0001
303.2	.048	.2378	1.3996	.0001
303.2	.0507	.3586	1.4174	.0001
303.2	.0566	.4729	1.4346	.0001
303.2	.0574	.5716	1.4494	.0001
303.2	.0603	.7538	1.4787	.0001
303.2	.0602	.8052	1.4873	.0001
303.2	.0593	.9407	1.5107	.0001
318.2	.0469	0	1.3596	.0001
318.2	.0501	.1199	1.3756	.0001
318.2	.0528	.1911	1.3857	.0001
318.2	.0592	.315	1.4031	.0001
318.2	.0685	.5372	1.4377	.0001
318.2	.0672	.6509	1.4545	.0001
318.2	.0684	.7433	1.4704	.0001
318.2	.0694	.9306	1.5024	.0001

System: 2-furaldehyde + ethyl ethanoate + water; phases: Liquid
Fixed: Pressure, kPa = 101
Property: Refractive index (Na D-line) (Liquid); method: Standard Abbe refractometry
Temperature, K	Mass fraction of water	Mass fraction of 2-furaldehyde	Refractive index (Na D-line)	uncertainty
288.2	.9117	0	1.3404	.0001
288.2	.9118	.0229	1.343	.0001
288.2	.9033	.0523	1.347	.0001
288.2	.9091	.062	1.348	.0001
288.2	.9305	.0695	1.3464	.0001
303.2	.9239	0	1.3372	.0001
303.2	.9118	.0295	1.3417	.0001
303.2	.9082	.0524	1.3437	.0001
303.2	.9172	.0592	1.3444	.0001
303.2	.918	.082	1.3469	.0001
318.2	.934	0	1.3349	.0001
318.2	.9154	.0208	1.3375	.0001
318.2	.9114	.0385	1.3404	.0001
318.2	.9095	.049	1.3412	.0001
318.2	.9078	.0681	1.3434	.0001
318.2	.9129	.0711	1.3437	.0001
318.2	.9165	.0835	1.3445	.0001

System: 2-furaldehyde + propyl ethanoate + water; phases: Liquid mixture 2, Liquid mixture 1
Property: Mass fraction of 2-furaldehyde (Liquid mixture 2); method: Other
Property: Mass fraction of water (Liquid mixture 1); method: Other
Property: Mass fraction of 2-furaldehyde (Liquid mixture 1); method: Other
Temperature, K	Pressure, kPa	Mass fraction of water	Mass fraction of 2-furaldehyde	uncertainty	Mass fraction of water	uncertainty	Mass fraction of 2-furaldehyde	uncertainty
288.15	101.325	.9948	.0013	.0002	.0956	.0002	.0826	.0002
303.15	101.325	.9898	.0073	.0002	.8307	.0002	.0686	.0002
303.15	101.325	.9868	.0105	.0002	.8168	.0002	.1004	.0002
303.15	101.325	.9843	.0126	.0002	.825	.0002	.1194	.0002
288.15	101.325	.9935	.0029	.0002	.108	.0002	.1453	.0002
288.15	101.325	.9914	.0054	.0002	.1298	.0002	.2659	.0002
288.15	101.325	.9894	.0065	.0002	.139	.0002	.3252	.0002
288.15	101.325	.9896	.0079	.0002	.1538	.0002	.3859	.0002
288.15	101.325	.9881	.0096	.0002	.1693	.0002	.4836	.0002
288.15	101.325	.9857	.0125	.0002	.1948	.0002	.6187	.0002
303.15	101.325	.9949	.0024	.0002	.8369	.0002	.022	.0002
303.15	101.325	.99	.0053	.0002	.8292	.0002	.0439	.0002

System: 2-furaldehyde + propyl ethanoate + water; phases: Liquid
Fixed: Pressure, kPa = 101
Property: Mass density, kg/m3 (Liquid); method: Vibrating tube method
Temperature, K	Mass fraction of water	Mass fraction of 2-furaldehyde	Mass density, kg/m3	uncertainty
288.2	.0285	0	899.502	.005
288.2	.0292	.1507	946.612	.005
288.2	.0307	.1777	952.815	.005
288.2	.0326	.2242	964.484	.005
288.2	.0361	.3151	987.156	.005
288.2	.0363	.4068	1009.909	.005
288.2	.0419	.5217	1040.541	.005
288.2	.0447	.8131	1117.183	.005
288.2	.044	.956	1148.681	.005
303.2	.0346	0	894.344	.005
303.2	.0404	.1157	922.128	.005
303.2	.048	.2378	952.284	.005
303.2	.0507	.3586	983.393	.005
303.2	.0566	.4729	1012.984	.005
303.2	.0574	.5716	1038.846	.005
303.2	.0603	.7538	1088.482	.005
303.2	.0602	.8052	1103.02	.005
303.2	.0593	.9407	1141.614	.005
318.2	.0469	0	877.241	.005
318.2	.0501	.1199	906.505	.005
318.2	.0528	.1911	924.199	.005
318.2	.0592	.315	955.738	.005
318.2	.0685	.5372	1016.342	.005
318.2	.0672	.6509	1044.601	.005
318.2	.0684	.7433	1070.977	.005
318.2	.0694	.9306	1123.957	.005

System: 2-furaldehyde + propyl ethanoate + water; phases: Liquid
Fixed: Pressure, kPa = 101
Property: Mass density, kg/m3 (Liquid); method: Vibrating tube method
Temperature, K	Mass fraction of water	Mass fraction of 2-furaldehyde	Mass density, kg/m3	uncertainty
288.2	.9117	0	999.568	.005
288.2	.9118	.0229	1003.794	.005
288.2	.9033	.0523	1009.103	.005
288.2	.9091	.062	1010.863	.005
288.2	.9305	.0695	1012.248	.005
303.2	.9239	0	994.64	.005
303.2	.9118	.0295	999.733	.005
303.2	.9082	.0524	1004.041	.005
303.2	.9172	.0592	1005.406	.005
303.2	.918	.082	1009.532	.005
318.2	.934	0	988.405	.005
318.2	.9154	.0208	991.739	.005
318.2	.9114	.0385	994.591	.005
318.2	.9095	.049	996.397	.005
318.2	.9078	.0681	1000.109	.005
318.2	.9129	.0711	1001.002	.005
318.2	.9165	.0835	1003.294	.005

System: 2-furaldehyde + propyl ethanoate + water; phases: Liquid
Fixed: Pressure, kPa = 101
Property: Refractive index (Na D-line) (Liquid); method: Standard Abbe refractometry
Temperature, K	Mass fraction of water	Mass fraction of 2-furaldehyde	Refractive index (Na D-line)	uncertainty
288.2	.0152	0	1.3865	.0001
288.2	.021	.1067	1.3988	.0001
288.2	.0219	.2483	1.4168	.0001
288.2	.0302	.3969	1.4358	.0001
288.2	.0308	.4863	1.448	.0001
288.2	.0354	.5158	1.4529	.0001
288.2	.0369	.6279	1.4696	.0001
288.2	.044	.956	1.5203	.0001
303.2	.0199	0	1.379	.0001
303.2	.029	.1161	1.3926	.0001
303.2	.0357	.2407	1.4078	.0001
303.2	.0324	.3484	1.4223	.0001
303.2	.0401	.4773	1.4395	.0001
303.2	.0439	.5543	1.4508	.0001
303.2	.0472	.6735	1.4691	.0001
303.2	.0478	.8096	1.4888	.0001
303.2	.0593	.9407	1.5107	.0001
288.2	.9745	0	1.3361	.0001
288.2	.9574	.0197	1.3396	.0001
288.2	.9398	.0439	1.3431	.0001
288.2	.9319	.0634	1.346	.0001
288.2	.9305	.0695	1.3464	.0001
303.2	.9789	0	1.3341	.0001
303.2	.9516	.0272	1.3383	.0001
303.2	.9387	.05	1.3419	.0001
303.2	.9264	.066	1.3443	.0001
303.2	.9173	.0827	1.3469	.0001
