Measured thermophysical data. Investigation on vapor liquid equilibria for binary systems of metal ion-containing ionic liquid [bmim]Zn2Cl5/NH3 by experiment and modified UNIFAC model
Source: Fluid Phase Equilib., 2013, 10.1016/j.fluid.2013.09.011
Compound 1: ammonia, H3N, purity 99.99%
Compound 2: 1-butyl-3-methylimidazolium chlorotetrachlorodizincate, C8H15Cl5N2Zn2

System: ammonia + 1-butyl-3-methylimidazolium chlorotetrachlorodizincate; phases: Gas, Liquid
Property: Vapor or sublimation pressure, kPa (Gas); method: Ebulliometric method (Recirculating still)
Temperature, K	Mole fraction of ammonia	Vapor or sublimation pressure, kPa	uncertainty
323.15	.8578	67.4	.2
323.15	.8684	77.4	.2
323.15	.8776	87.7	.2
323.15	.8892	103.5	.2
323.15	.9042	134.9	.2
323.15	.9176	170.8	.2
323.15	.9277	210.6	.2
323.15	.9399	285.6	.2
343.15	.8565	119.6	.2
343.15	.8672	137.4	.2
343.15	.8763	155.8	.2
343.15	.888	183.4	.2
343.15	.9031	230.9	.2
343.15	.9166	286.5	.2
343.15	.9268	347.7	.2
343.15	.9391	461.2	.2
363.15	.8545	202.5	.2
363.15	.8652	230.7	.2
363.15	.8745	259.6	.2
363.15	.8862	303	.2
363.15	.9015	375.1	.2
363.15	.9152	463.8	.2
363.15	.9255	555.1	.2
363.15	.9381	711.8	.2
383.15	.8515	327.4	.2
383.15	.8625	368.5	.2
383.15	.8719	410.7	.2
383.15	.8838	473.6	.2
383.15	.8994	577.1	.2
383.15	.9134	699.6	.2
383.15	.9239	829.7	.2
383.15	.9367	1040.8	.2
403.15	.8479	488.6	.2
403.15	.859	544.9	.2
403.15	.8686	602.3	.2
403.15	.8808	687.5	.2
403.15	.8968	829.9	.2
403.15	.9111	1000	.2
403.15	.9219	1170.8	.2
403.15	.9351	1452.6	.2
423.15	.8439	668.4	.2
423.15	.8553	740.5	.2
423.15	.8651	813.4	.2
423.15	.8776	921.9	.2
423.15	.8941	1100.9	.2
423.15	.9088	1313	.2
423.15	.9199	1523	.2
423.15	.9335	1859.8	.2
443.15	.8408	821.5	.2
443.15	.8524	905.7	.2
443.15	.8625	989.4	.2
443.15	.8753	1114.1	.2
443.15	.8921	1320.9	.2
443.15	.9071	1564.7	.2
443.15	.9185	1805.7	.2
463.15	.8382	961.2	.2
463.15	.8501	1055.2	.2
463.15	.8604	1148.2	.2
463.15	.8734	1287.2	.2
463.15	.8905	1516.9	.2
463.15	.9058	1787.3	.2
483.15	.8362	1081.2	.2
483.15	.8483	1183.8	.2
483.15	.8588	1283.9	.2
483.15	.8721	1434.2	.2
483.15	.8894	1682	.2
483.15	.9049	1970.7	.2
503.15	.8348	1187	.2
503.15	.8471	1294.9	.2
503.15	.8577	1400.7	.2
503.15	.8711	1558.8	.2
503.15	.8887	1816.5	.2
523.15	.8332	1300.6	.2
523.15	.8457	1414.3	.2
523.15	.8565	1525.2	.2
523.15	.8701	1688.7	.2
523.15	.888	1955.7	.2
543.15	.8311	1443.5	.2
543.15	.8438	1563.9	.2
543.15	.8548	1681.1	.2
543.15	.8687	1853.9	.2
523.15	.8302	1535.6	.2
523.15	.843	1661.9	.2
523.15	.8541	1784.8	.2
523.15	.8682	1964.6	.2
