Measured thermophysical data. Vapor pressure and gaseous speed of sound measurements for isobutane (R600a)
Source: Fluid Phase Equilib., 2014, 10.1016/j.fluid.2014.09.017
Compound 1: isobutane, C4H10, purity 99.95%

System: isobutane; phases: Liquid, Gas
Property: Vapor or sublimation pressure, kPa (Liquid); method: Closed cell (Static) method
Temperature, K	Vapor or sublimation pressure, kPa	uncertainty
258.921	91.824	.3
264.242	112.994	.3
265.673	119.323	.3
267.198	126.349	.3
272.998	156.002	.3
273.15	156.853	.3
275.307	169.215	.3
278.941	191.71	.3
279.999	198.68	.3
281.244	207.121	.3
282.806	218.084	.3
284.022	226.899	.3
285.823	240.51	.3
287.249	251.696	.3
288.672	263.239	.3
290	274.378	.3
291.965	291.502	.3
291.986	291.682	.3
293.501	305.467	.3
294.792	317.557	.3
296.301	332.18	.3
299.972	369.835	.3
301.047	381.525	.3
302.765	400.598	.3
304.462	420.136	.3
305.968	438.065	.3
305.972	438.116	.3
307.393	455.547	.3
308.825	473.636	.3
309.999	488.84	.3
309.999	488.841	.3
312.106	516.993	.3
314.506	550.489	.3
314.523	550.72	.3
316.611	581.222	.3
319.998	633.437	.3
321.996	665.792	.3
324.127	701.604	.3
325.995	734.192	.3
325.997	734.218	.3
326.581	744.587	.3
328	770.357	.3
328.634	781.994	.3
330.001	807.672	.3
331.996	846.32	.3
332.154	849.381	.3
334	886.423	.3
334.707	900.875	.3
338.873	989.763	.3
342	1060.541	.3
342.57	1073.841	.3
343.999	1107.764	.3
344.844	1128.121	.3
347.48	1193.575	.3
350	1258.833	.3
354.889	1392.472	.3
357.129	1457.164	.3
359.996	1543.113	.3
362.407	1618.293	.3
364.651	1690.651	.3
367.122	1773.083	.3
369.995	1872.59	.3
373.255	1990.511	.3
375.821	2087.203	.3
377.953	2170.206	.3
379.999	2252.244	.3
382.692	2363.441	.3
385.136	2468.261	.3
387.959	2593.621	.3
389.996	2687.23	.3
390.018	2688.252	.3
392.645	2812.849	.3
392.698	2815.454	.3
394.368	2897.055	.3
394.771	2917.116	.3
397.487	3054.961	.3
399.617	3166.884	.3
399.996	3187.157	.3
400.086	3191.888	.3
400.187	3197.395	.3
402.448	3320.927	.3
402.464	3321.829	.3
403.934	3404.509	.3
404.713	3449.229	.3
404.999	3465.726	.3
405.993	3523.631	.3

System: isobutane; phases: Gas
Property: Speed of sound, m/s (Gas); method: Cylindrical cavity resonance method
Temperature, K	Pressure, kPa	Speed of sound, m/s	uncertainty
270	111.758	199.422	.0299133
270	103.064	199.998	.0299997
270	94.7	200.544	.0300816
270	86.238	201.092	.0301638
270	75.989	201.746	.0302619
270	68.26	202.236	.0303354
270	54.634	203.085	.03046275
280	145.497	201.566	.0302349
280	133.046	202.324	.0303486
280	121.294	203.03	.0304545
280	108.811	203.769	.03056535
280	94.958	204.578	.0306867
280	82.683	205.285	.03079275
280	70.727	205.966	.0308949
280	62.45	206.432	.0309648
280	52.41	206.994	.0310491
290	193.673	203.092	.0304638
290	177.465	204.001	.03060015
290	173.834	204.222	.0306333
290	161.392	204.901	.03073515
290	158.573	205.075	.03076125
290	147.228	205.683	.03085245
290	139.152	206.142	.0309213
290	116.174	207.38	.031107
290	97.119	208.385	.03125775
290	78.62	209.347	.03140205
290	58.493	210.378	.0315567
300	235.368	205.226	.0307839
300	201.302	207.004	.0310506
300	168.572	208.666	.0312999
300	150.12	209.584	.0314376
300	127.824	210.674	.0316011
300	107.721	211.647	.03174705
300	80.889	212.918	.0319377
300	57.392	214.012	.0321018
300	37.473	214.929	.03223935
310	299.717	206.462	.0309693
310	247.334	209.015	.03135225
310	141.663	213.884	.0320826
310	107.373	215.395	.03230925
310	212.652	210.651	.03159765
310	178.434	212.228	.0318342
310	76.778	216.713	.03250695
310	45.636	218.034	.0327051
320	383.31	207.102	.0310653
320	343.583	208.945	.03134175
320	289.642	211.373	.03170595
320	262.644	212.556	.0318834
320	192.01	215.565	.03233475
320	159.3	216.915	.03253725
320	109.172	218.941	.03284115
320	83.103	219.974	.0329961
320	57.93	220.957	.03314355
330	480.104	207.543	.03113145
330	422.839	210.055	.03150825
330	339.742	213.552	.0320328
330	297.375	215.271	.03229065
330	246.954	217.271	.03259065
330	195.139	219.271	.03289065
330	151.315	220.923	.03313845
330	107.249	222.55	.0333825
330	69.466	223.92	.033588
330	39.615	224.986	.0337479

System: isobutane; phases: Gas
Fixed: Pressure, kPa = 101.325
Property: Molar heat capacity at constant pressure, J/K/mol (Gas); method: derived from presented speed of sound measurements
Temperature, K	Molar heat capacity at constant pressure, J/K/mol	uncertainty
270	89.43	.17886
280	91.958	.183916
290	94.486	.188972
300	97.296	.194592
310	99.99	.19998
320	102.734	.205468
330	105.428	.210856
