Measured thermophysical data. Measurements and thermodynamic modeling of the ethanol-water system with emphasis to the azeotropic region
Source: Fluid Phase Equilib., 2011, 10.1016/j.fluid.2011.06.009
Compound 1: water, H2O, purity 99.8%
Compound 2: ethanol, C2H6O, purity 99.99%

System: ethanol + water; phases: Liquid, Gas
Property: Boiling temperature at pressure P, K (Liquid); method: Ebulliometric method (Recirculating still)
Mole fraction of ethanol	Pressure, kPa	Boiling temperature at pressure P, K	uncertainty
.117	13.15	313.71	.01
.241	13.15	310.7	.01
.383	13.15	309.53	.01
.492	13.15	308.82	.01
.59	13.15	308.36	.01
.656	13.15	308.1	.01
.771	13.15	307.7	.01
.84	13.15	307.54	.01
.864	13.15	307.56	.01
.897	13.15	307.51	.01
.908	13.15	307.46	.01
.911	13.15	307.5	.01
.934	13.15	307.48	.01
.947	13.15	307.45	.01
.971	13.15	307.44	.01
.076	19.71	323.53	.01
.141	19.71	320.52	.01
.26	19.71	318.05	.01
.39	19.71	317.04	.01
.499	19.71	316.35	.01
.599	19.71	315.9	.01
.688	19.71	315.55	.01
.799	19.71	315.29	.01
.805	19.71	315.26	.01
.841	19.71	315.19	.01
.883	19.71	315.15	.01
.913	19.71	315.16	.01
.931	19.71	315.13	.01
.945	19.71	315.13	.01
.96	19.71	315.14	.01
.964	19.71	315.14	.01
.063	32.86	335.16	.01
.104	32.86	332.54	.01
.15	32.86	330.96	.01
.248	32.86	329.26	.01
.454	32.86	326.77	.01
.581	32.86	326.1	.01
.657	32.86	325.89	.01
.76	32.86	325.67	.01
.839	32.86	325.53	.01
.854	32.86	325.51	.01
.913	32.86	325.46	.01
.931	32.86	325.43	.01
.932	32.86	325.42	.01
.965	32.86	325.45	.01

System: ethanol + water; phases: Gas, Liquid
Property: Mole fraction of ethanol (Gas); method: Titration method
Mole fraction of ethanol	Pressure, kPa	Mole fraction of ethanol	uncertainty
.117	13.15	.461	.01
.241	13.15	.567	.01
.383	13.15	.632	.01
.492	13.15	.668	.01
.59	13.15	.714	.01
.656	13.15	.737	.01
.771	13.15	.812	.01
.84	13.15	.855	.01
.864	13.15	.874	.01
.897	13.15	.904	.01
.908	13.15	.91	.01
.911	13.15	.914	.01
.934	13.15	.934	.01
.947	13.15	.947	.01
.971	13.15	.969	.01
.076	19.71	.407	.01
.141	19.71	.51	.01
.26	19.71	.592	.01
.39	19.71	.632	.01
.499	19.71	.679	.01
.599	19.71	.706	.01
.688	19.71	.76	.01
.799	19.71	.826	.01
.805	19.71	.828	.01
.841	19.71	.854	.01
.883	19.71	.888	.01
.913	19.71	.915	.01
.931	19.71	.932	.01
.945	19.71	.945	.01
.96	19.71	.957	.01
.964	19.71	.964	.01
.063	32.86	.356	.01
.104	32.86	.463	.01
.15	32.86	.494	.01
.248	32.86	.556	.01
.454	32.86	.662	.01
.581	32.86	.696	.01
.657	32.86	.732	.01
.76	32.86	.792	.01
.839	32.86	.85	.01
.854	32.86	.868	.01
.913	32.86	.913	.01
.931	32.86	.931	.01
.932	32.86	.934	.01
.965	32.86	.963	.01
