Measured thermophysical data. Aqueous solubility of acetaminophen in the presence of 1-hexyl-3- methyl imidazolium bromide, ionic liquid as co-solvent
Source: Fluid Phase Equilib., 2016, 10.1016/j.fluid.2016.05.012
Compound 1: acetaminophen, C8H9NO2, purity 98%
Compound 2: 1-hexyl-3-methylimidazolium bromide, C10H19BrN2, purity 97%
Compound 3: water, H2O, purity 99.8%

System: acetaminophen + water + 1-hexyl-3-methylimidazolium bromide; phases: Liquid, Crystal
Fixed: Pressure, kPa = 100
Property: Mass fraction of acetaminophen (Liquid); method: gravimetric
Temperature, K	Solvent: Mass fraction of 1-hexyl-3-methylimidazolium bromide	Mass fraction of acetaminophen	uncertainty
293.15	0	.0129	
293.15	.02	.0178	
293.15	.05	.0229	
293.15	.07	.0313	
293.15	.1	.0407	
293.15	.15	.0545	
298.15	0	.0159	
298.15	.02	.0203	
298.15	.05	.0263	
298.15	.07	.0354	
298.15	.1	.0468	
298.15	.15	.0625	
303.15	0	.0178	
303.15	.02	.0232	
303.15	.05	.0298	
303.15	.07	.0402	
303.15	.1	.0528	
303.15	.15	.071	
308.15	0	.0219	
308.15	.02	.0264	
308.15	.05	.0352	
308.15	.07	.0452	
308.15	.1	.0586	
308.15	.15	.0786	
310.15	0	.0224	
310.15	.02	.0284	
310.15	.05	.0372	
310.15	.07	.0475	
310.15	.1	.0625	
310.15	.15	.0838	
313.15	0	.0249	
313.15	.02	.0308	
313.15	.05	.0414	
313.15	.07	.0516	
313.15	.1	.0668	
313.15	.15	.0891	

System: acetaminophen + water + 1-hexyl-3-methylimidazolium bromide; phases: Liquid, Crystal
Fixed: Pressure, kPa = 100
Property: Mole fraction of acetaminophen (Liquid); method: gravimetric
Temperature, K	Solvent: Mass fraction of 1-hexyl-3-methylimidazolium bromide	Mole fraction of acetaminophen	uncertainty
293.15	0	.00155	
298.15	0	.00192	
303.15	0	.00215	
308.15	0	.00266	
310.15	0	.00272	
313.15	0	.00304	
293.15	.02	.00219	
298.15	.02	.00251	
303.15	.02	.00287	
308.15	.02	.00329	
310.15	.02	.00353	
313.15	.02	.00384	
293.15	.05	.00292	
298.15	.05	.00336	
303.15	.05	.00382	
308.15	.05	.00454	
310.15	.05	.0048	
313.15	.05	.00537	
293.15	.07	.00409	
298.15	.07	.00466	
303.15	.07	.0053	
308.15	.07	.00599	
310.15	.07	.00631	
313.15	.07	.00689	
293.15	.1	.00553	
298.15	.1	.0064	
303.15	.1	.00726	
308.15	.1	.00811	
310.15	.1	.00867	
313.15	.1	.00931	
293.15	.15	.00791	
298.15	.15	.00913	
303.15	.15	.01047	
308.15	.15	.01166	
310.15	.15	.0125	
313.15	.15	.01335	

System: acetaminophen + water; phases: Liquid, Crystal
Property: Mass fraction of acetaminophen (Liquid); method: gravimetric
Temperature, K	Pressure, kPa	Mass fraction of acetaminophen	uncertainty
293.15	100	.0129	
298.15	100	.0159	
303.15	100	.0178	
308.15	100	.0219	
310.15	100	.0224	
313.15	100	.0249	

System: acetaminophen + water; phases: Liquid, Crystal
Property: Mole fraction of acetaminophen (Liquid); method: gravimetric
Temperature, K	Pressure, kPa	Mole fraction of acetaminophen	uncertainty
293.15	100	.00155	
298.15	100	.00192	
303.15	100	.00215	
308.15	100	.00266	
310.15	100	.00272	
313.15	100	.00304	
