Measured thermophysical data. Solubilities of gases in novel alcamines ionic liquids 2-[2-hydroxyethyl (methyl) amino] ethanol chloride
Source: Fluid Phase Equilib., 2011, 10.1016/j.fluid.2010.08.017
Compound 1: 2-hydroxy-N-(2-hydroxyethyl)-N-methylethanaminium chloride, C5H14ClNO2, purity 99%
Compound 2: carbon monoxide, CO, purity 99.9%
Compound 3: hydrogen, H2, purity 99.9%
Compound 4: nitrogen, N2, purity 99.9%
Compound 5: oxygen, O2, purity 99.9%
Compound 6: carbon dioxide, CO2, purity 99.9%

System: carbon monoxide + 2-hydroxy-N-(2-hydroxyethyl)-N-methylethanaminium chloride; phases: Liquid, Gas
Property: Mole fraction of carbon monoxide (Liquid); method: Mass Difference
Temperature, K	Pressure, kPa	Mole fraction of carbon monoxide	uncertainty
313.15	2610	.0778	.0005
313.15	4450	.1314	.0005
313.15	5760	.1665	.0005
313.15	6660	.1893	.0005
313.15	7380	.2093	.0005
313.15	7770	.2197	.0005
313.15	8220	.233	.0005
318.15	2710	.0754	.0005
318.15	4600	.1248	.0005
318.15	5950	.1588	.0005
318.15	6860	.1809	.0005
318.15	7510	.1959	.0005
318.15	7940	.2057	.0005
318.15	8390	.2151	.0005
323.15	2510	.0663	.0005
323.15	4260	.1109	.0005
323.15	5510	.1396	.0005
323.15	6240	.1584	.0005
323.15	7070	.1775	.0005
323.15	7510	.1897	.0005
323.15	8210	.205	.0005
328.15	2590	.0603	.0005
328.15	4620	.1059	.0005
328.15	5950	.1339	.0005
328.15	6880	.1539	.0005
328.15	7600	.1684	.0005
328.15	8060	.1783	.0005
328.15	8520	.1901	.0005
333.15	2620	.0569	.0005
333.15	4670	.0999	.0005
333.15	6110	.1285	.0005
333.15	6700	.1391	.0005
333.15	7800	.1595	.0005
333.15	8160	.1654	.0005
333.15	8620	.1755	.0005

System: carbon monoxide + 2-hydroxy-N-(2-hydroxyethyl)-N-methylethanaminium chloride; phases: Liquid, Gas
Fixed: Mole fraction of carbon monoxide = 0
Property: Henry's Law constant (mole fraction scale), kPa of carbon monoxide (Liquid); method: Mass Difference
Temperature, K	Henry's Law constant (mole fraction scale), kPa of carbon monoxide	uncertainty
313.15	32460	50
318.15	34410	50
323.15	36920	50
328.15	41970	50
333.15	44230	50

System: hydrogen + 2-hydroxy-N-(2-hydroxyethyl)-N-methylethanaminium chloride; phases: Liquid, Gas
Property: Mole fraction of hydrogen (Liquid); method: Mass Difference
Temperature, K	Pressure, kPa	Mole fraction of hydrogen	uncertainty
313.15	1320	.0324	.0005
313.15	2430	.0597	.0005
313.15	3320	.0818	.0005
313.15	3990	.0981	.0005
313.15	4500	.1089	.0005
313.15	4880	.118	.0005
313.15	5190	.124	.0005
313.15	5440	.1306	.0005
318.15	1340	.0299	.0005
318.15	2440	.0547	.0005
318.15	3290	.0737	.0005
318.15	3990	.089	.0005
318.15	4290	.0943	.0005
318.15	4750	.1022	.0005
318.15	4790	.1058	.0005
318.15	5770	.1254	.0005
323.15	1590	.0298	.0005
323.15	2830	.0526	.0005
323.15	3750	.0697	.0005
323.15	4430	.082	.0005
323.15	4940	.0905	.0005
323.15	5310	.1009	.0005
323.15	5600	.1065	.0005
323.15	5850	.11	.0005
328.15	1640	.0295	.0005
328.15	2900	.0515	.0005
328.15	3830	.0707	.0005
328.15	4550	.0801	.0005
328.15	5000	.0908	.0005
328.15	5340	.0956	.0005
328.15	5630	.0995	.0005
328.15	5880	.1054	.0005
333.15	1650	.029	.0005
333.15	2910	.0509	.0005
333.15	3820	.0682	.0005
333.15	4510	.077	.0005
333.15	5020	.0853	.0005
333.15	5390	.0932	.0005
333.15	5660	.0973	.0005
333.15	5870	.1001	.0005

System: hydrogen + 2-hydroxy-N-(2-hydroxyethyl)-N-methylethanaminium chloride; phases: Liquid, Gas
Fixed: Mole fraction of hydrogen = 0
Property: Henry's Law constant (mole fraction scale), kPa of hydrogen (Liquid); method: Mass Difference
Temperature, K	Henry's Law constant (mole fraction scale), kPa of hydrogen	uncertainty
313.15	43860	50
318.15	47810	50
323.15	54080	50
328.15	55270	50
333.15	55820	50

System: nitrogen + 2-hydroxy-N-(2-hydroxyethyl)-N-methylethanaminium chloride; phases: Liquid, Gas
Property: Mole fraction of nitrogen (Liquid); method: Mass Difference
Temperature, K	Pressure, kPa	Mole fraction of nitrogen	uncertainty
313.15	2180	.1999	.0005
313.15	3770	.3224	.0005
313.15	4890	.4087	.0005
313.15	5710	.4732	.0005
313.15	6280	.5248	.0005
313.15	6690	.5621	.0005
313.15	7060	.589	.0005
313.15	7320	.6187	.0005
318.15	2240	.17	.0005
318.15	3370	.2501	.0005
318.15	4700	.3471	.0005
318.15	6010	.4391	.0005
318.15	6580	.4752	.0005
318.15	7100	.5051	.0005
318.15	7360	.5212	.0005
318.15	7450	.5301	.0005
323.15	2230	.1083	.0005
323.15	3580	.1698	.0005
323.15	4600	.2159	.0005
323.15	5190	.2427	.0005
323.15	5880	.2727	.0005
323.15	6370	.2957	.0005
323.15	6700	.3098	.0005
323.15	6960	.3174	.0005
328.15	2150	.0751	.0005
328.15	3460	.1197	.0005
328.15	4740	.1642	.0005
328.15	5820	.2006	.0005
328.15	6370	.2113	.0005
328.15	6940	.2246	.0005
328.15	7290	.2377	.0005
328.15	7470	.2449	.0005
333.15	2190	.0664	.0005
333.15	3770	.1115	.0005
333.15	4860	.139	.0005
333.15	5690	.1612	.0005
333.15	6250	.1753	.0005
333.15	6650	.1856	.0005
333.15	6910	.1903	.0005
333.15	7200	.1934	.0005

System: nitrogen + 2-hydroxy-N-(2-hydroxyethyl)-N-methylethanaminium chloride; phases: Liquid, Gas
Fixed: Mole fraction of nitrogen = 0
Property: Henry's Law constant (mole fraction scale), kPa of nitrogen (Liquid); method: Mass Difference
Temperature, K	Henry's Law constant (mole fraction scale), kPa of nitrogen	uncertainty
313.15	10850	50
318.15	12800	50
323.15	20120	50
328.15	27360	50
333.15	31250	50

System: oxygen + 2-hydroxy-N-(2-hydroxyethyl)-N-methylethanaminium chloride; phases: Liquid, Gas
Property: Mole fraction of oxygen (Liquid); method: Mass Difference
Temperature, K	Pressure, kPa	Mole fraction of oxygen	uncertainty
313.15	1950	.0993	.0005
313.15	3500	.1706	.0005
313.15	4670	.2152	.0005
313.15	5550	.2596	.0005
313.15	6260	.291	.0005
313.15	6780	.312	.0005
313.15	7450	.3342	.0005
318.15	2010	.0989	.0005
318.15	3560	.1713	.0005
318.15	4730	.2149	.0005
318.15	5640	.2599	.0005
318.15	6340	.2899	.0005
318.15	6720	.2984	.0005
318.15	7230	.317	.0005
323.15	1950	.0939	.0005
323.15	3550	.1669	.0005
323.15	4740	.2166	.0005
323.15	5690	.2563	.0005
323.15	6450	.2846	.0005
323.15	6960	.2983	.0005
323.15	7440	.3163	.0005
328.15	2030	.0916	.0005
328.15	3590	.1591	.0005
328.15	4790	.2086	.0005
328.15	5730	.2462	.0005
328.15	6030	.2598	.0005
328.15	6370	.2701	.0005
328.15	6920	.2912	.0005
333.15	2060	.089	.0005
333.15	3630	.1529	.0005
333.15	4860	.1998	.0005
333.15	5830	.2307	.0005
333.15	6630	.258	.0005
333.15	7150	.2762	.0005
333.15	7590	.2909	.0005

System: oxygen + 2-hydroxy-N-(2-hydroxyethyl)-N-methylethanaminium chloride; phases: Liquid, Gas
Fixed: Mole fraction of oxygen = 0
Property: Henry's Law constant (mole fraction scale), kPa of oxygen (Liquid); method: Mass Difference
Temperature, K	Henry's Law constant (mole fraction scale), kPa of oxygen	uncertainty
313.15	18890	50
318.15	19330	50
323.15	19670	50
328.15	21470	50
333.15	21930	50

System: carbon dioxide + 2-hydroxy-N-(2-hydroxyethyl)-N-methylethanaminium chloride; phases: Liquid, Gas
Property: Mole fraction of carbon dioxide (Liquid); method: Mass Difference
Temperature, K	Pressure, kPa	Mole fraction of carbon dioxide	uncertainty
313.15	1220	.6235	.0005
313.15	2160	.7459	.0005
313.15	2830	.8047	.0005
313.15	3370	.8408	.0005
313.15	3810	.8645	.0005
313.15	4180	.8814	.0005
313.15	4420	.8924	.0005
318.15	1400	.6197	.0005
318.15	2440	.752	.0005
318.15	3150	.8044	.0005
318.15	3710	.8343	.0005
318.15	4030	.8526	.0005
318.15	4340	.8647	.0005
318.15	4560	.8755	.0005
323.15	1380	.5767	.0005
323.15	2390	.7043	.0005
323.15	3110	.7647	.0005
323.15	3640	.7981	.0005
323.15	3960	.8277	.0005
323.15	4280	.8466	.0005
323.15	4550	.861	.0005
328.15	1410	.5482	.0005
328.15	2450	.6791	.0005
328.15	3120	.7382	.0005
328.15	3630	.7765	.0005
328.15	4000	.8017	.0005
328.15	4170	.8219	.0005
328.15	4630	.8402	.0005
333.15	1220	.4852	.0005
333.15	2100	.6089	.0005
333.15	2790	.6885	.0005
333.15	3250	.7274	.0005
333.15	3590	.7554	.0005
333.15	3910	.7796	.0005
333.15	4150	.7961	.0005
