Measured thermophysical data. Ion association and solvation behavior of some alkali metal acetates in aqueous 2-butanol solutions at T = 298.15, 303.15 and 308.15 K
Source: Fluid Phase Equilib., 2011, 10.1016/j.fluid.2011.05.017
Compound 1: water, H2O, purity 99.9%
Compound 2: (RS)-2-butanol, C4H10O, purity 99.5%
Compound 3: lithium acetate, C2H3LiO2, purity 99.5%
Compound 4: sodium ethanoate, C2H3NaO2, purity 99.5%
Compound 5: potassium ethanoate, C2H3KO2, purity 99.5%

System: (RS)-2-butanol + water; phases: Liquid
Fixed: Pressure, kPa = 101
Property: Mass density, kg/m3 (Liquid); method: Vibrating tube method
Mass fraction of (RS)-2-butanol	Temperature, K	Mass density, kg/m3	uncertainty
.7	298.15	863.8	.1
.8	298.15	843.6	.1
.9	298.15	822.8	.1
.7	303.15	859.6	.1
.8	303.15	839.2	.1
.9	303.15	818.8	.1
.7	308.15	855.1	.1
.8	308.15	834.8	.1
.9	308.15	813.5	.1

System: (RS)-2-butanol + water; phases: Liquid
Fixed: Pressure, kPa = 101
Property: Viscosity, Pa*s (Liquid); method: Capillary tube (Ostwald; Ubbelohde) method
Mass fraction of (RS)-2-butanol	Temperature, K	Viscosity, Pa*s	uncertainty
.7	298.15	.003342	.000003
.8	298.15	.003098	.000003
.9	298.15	.002812	.000003
.7	303.15	.002795	.000003
.8	303.15	.002608	.000003
.9	303.15	.002375	.000003
.7	308.15	.002377	.000003
.8	308.15	.002216	.000003
.9	308.15	.002029	.000003

System: (RS)-2-butanol + lithium acetate + water; phases: Liquid
Fixed: Pressure, kPa = 101
Property: Molar conductivity, S*m2/mol (Liquid); method: Alternating current cell with electrodes
Molality, mol/kg of lithium acetate	Solvent: Mass fraction of (RS)-2-butanol	Temperature, K	Molar conductivity, S*m2/mol	uncertainty
.00069	.7	298.15	.001663	.000004989
.00069	.7	303.15	.002067	.000006201
.00069	.7	308.15	.002429	.000007287
.00116	.7	298.15	.00156	.00000468
.00116	.7	303.15	.001939	.000005817
.00116	.7	308.15	.002332	.000006996
.00174	.7	298.15	.001487	.000004461
.00174	.7	303.15	.00185	.00000555
.00174	.7	308.15	.002264	.000006792
.00232	.7	298.15	.00139	.00000417
.00232	.7	303.15	.00182	.00000546
.00232	.7	308.15	.002206	.000006618
.0029	.7	298.15	.001342	.000004026
.0029	.7	303.15	.00174	.00000522
.0029	.7	308.15	.002138	.000006414
.00405	.7	298.15	.001229	.000003687
.00405	.7	303.15	.001609	.000004827
.00405	.7	308.15	.002051	.000006153
.00463	.7	298.15	.001175	.000003525
.00463	.7	303.15	.00156	.00000468
.00463	.7	308.15	.002	.000006
.00521	.7	298.15	.001133	.000003399
.00521	.7	303.15	.00155	.00000465
.00521	.7	308.15	.001954	.000005862
.00579	.7	298.15	.001095	.000003285
.00579	.7	303.15	.0015	.0000045
.00579	.7	308.15	.001905	.000005715
.00637	.7	298.15	.001045	.000003135
.00637	.7	303.15	.00146	.00000438
.00637	.7	308.15	.001857	.000005571
.00036	.8	298.15	.001591	.000004773
.00036	.8	303.15	.00202	.00000606
.00036	.8	308.15	.00227	.00000681
.00059	.8	298.15	.001543	.000004629
.00059	.8	303.15	.00193	.00000579
.00059	.8	308.15	.0022	.0000066
.00083	.8	298.15	.001463	.000004389
.00083	.8	303.15	.00188	.00000564
.00083	.8	308.15	.00214	.00000642
.00119	.8	298.15	.0014	.0000042
.00119	.8	303.15	.00181	.00000543
.00119	.8	308.15	.00207	.00000621
.00142	.8	298.15	.00135	.00000405
.00142	.8	303.15	.00175	.00000525
.00142	.8	308.15	.00202	.00000606
.00178	.8	298.15	.001302	.000003906
.00178	.8	303.15	.00169	.00000507
.00178	.8	308.15	.00195	.00000585
.00202	.8	298.15	.00127	.00000381
.00202	.8	303.15	.00165	.00000495
.00202	.8	308.15	.0019	.0000057
.00237	.8	298.15	.0012	.0000036
.00237	.8	303.15	.0016	.0000048
.00237	.8	308.15	.00184	.00000552
.00261	.8	298.15	.001165	.000003495
.00261	.8	303.15	.00156	.00000468
.00261	.8	308.15	.001738	.000005214
.00296	.8	298.15	.001125	.000003375
.00296	.8	303.15	.0015	.0000045
.00296	.8	308.15	.00172	.00000516
.00012	.9	298.15	.00144	.00000432
.00012	.9	303.15	.0019	.0000057
.00012	.9	308.15	.00215	.00000645
.00036	.9	298.15	.001329	.000003987
.00036	.9	303.15	.001754	.000005262
.00036	.9	308.15	.002016	.000006048
.00061	.9	298.15	.001236	.000003708
.00061	.9	303.15	.00166	.00000498
.00061	.9	308.15	.001909	.000005727
.00073	.9	298.15	.001207	.000003621
.00073	.9	303.15	.001642	.000004926
.00073	.9	308.15	.00188	.00000564
.00085	.9	298.15	.001171	.000003513
.00085	.9	303.15	.001602	.000004806
.00085	.9	308.15	.00182	.00000546
.00109	.9	298.15	.00112	.00000336
.00109	.9	303.15	.001511	.000004533
.00109	.9	308.15	.00174	.00000522
.00122	.9	298.15	.001085	.000003255
.00122	.9	303.15	.001489	.000004467
.00122	.9	308.15	.00172	.00000516
.00134	.9	298.15	.001064	.000003192
.00134	.9	303.15	.001465	.000004395
.00134	.9	308.15	.00169	.00000507
.00146	.9	298.15	.001036	.000003108
.00146	.9	303.15	.001425	.000004275
.00146	.9	308.15	.00164	.00000492
.0017	.9	298.15	.001	.000003
.0017	.9	303.15	.001393	.000004179
.0017	.9	308.15	.00156	.00000468

System: (RS)-2-butanol + sodium ethanoate + water; phases: Liquid
Fixed: Pressure, kPa = 101
Property: Molar conductivity, S*m2/mol (Liquid); method: Alternating current cell with electrodes
Molality, mol/kg of sodium ethanoate	Solvent: Mass fraction of (RS)-2-butanol	Temperature, K	Molar conductivity, S*m2/mol	uncertainty
.00069	.7	298.15	.001583	.000004749
.00069	.7	303.15	.00196	.00000588
.00069	.7	308.15	.00226	.00000678
.00116	.7	298.15	.001488	.000004464
.00116	.7	303.15	.00186	.00000558
.00116	.7	308.15	.00218	.00000654
.00174	.7	298.15	.0014	.0000042
.00174	.7	303.15	.00177	.00000531
.00174	.7	308.15	.0021	.0000063
.00232	.7	298.15	.001327	.000003981
.00232	.7	303.15	.0017	.0000051
.00232	.7	308.15	.00204	.00000612
.0029	.7	298.15	.00127	.00000381
.0029	.7	303.15	.00164	.00000492
.0029	.7	308.15	.00198	.00000594
.00405	.7	298.15	.00116	.00000348
.00405	.7	303.15	.001539	.000004617
.00405	.7	308.15	.00188	.00000564
.00463	.7	298.15	.001109	.000003327
.00463	.7	303.15	.001495	.000004485
.00463	.7	308.15	.00182	.00000546
.00521	.7	298.15	.001061	.000003183
.00521	.7	303.15	.00143	.00000429
.00521	.7	308.15	.00177	.00000531
.00579	.7	298.15	.001013	.000003039
.00579	.7	303.15	.00142	.00000426
.00579	.7	308.15	.00172	.00000516
.00637	.7	298.15	.000964	.000002892
.00637	.7	303.15	.00135	.00000405
.00637	.7	308.15	.00167	.00000501
.00036	.8	298.15	.001511	.000004533
.00036	.8	303.15	.00189	.00000567
.00036	.8	308.15	.00218	.00000654
.00059	.8	298.15	.001464	.000004392
.00059	.8	303.15	.001813	.000005439
.00059	.8	308.15	.00208	.00000624
.00083	.8	298.15	.0014	.0000042
.00083	.8	303.15	.00176	.00000528
.00083	.8	308.15	.00201	.00000603
.00119	.8	298.15	.001336	.000004008
.00119	.8	303.15	.0017	.0000051
.00119	.8	308.15	.001932	.000005796
.00142	.8	298.15	.001286	.000003858
.00142	.8	303.15	.00164	.00000492
.00142	.8	308.15	.00189	.00000567
.00178	.8	298.15	.001229	.000003687
.00178	.8	303.15	.001581	.000004743
.00178	.8	308.15	.0018	.0000054
.00202	.8	298.15	.001189	.000003567
.00202	.8	303.15	.001545	.000004635
.00202	.8	308.15	.00176	.00000528
.00237	.8	298.15	.001133	.000003399
.00237	.8	303.15	.00148	.00000444
.00237	.8	308.15	.001696	.000005088
.00261	.8	298.15	.001101	.000003303
.00261	.8	303.15	.001438	.000004314
.00261	.8	308.15	.001652	.000004956
.00296	.8	298.15	.001057	.000003171
.00296	.8	303.15	.001374	.000004122
.00296	.8	308.15	.001603	.000004809
.00012	.9	298.15	.001269	.000003807
.00012	.9	303.15	.001736	.000005208
.00012	.9	308.15	.00196	.00000588
.00036	.9	298.15	.00116	.00000348
.00036	.9	303.15	.00162	.00000486
.00036	.9	308.15	.0018	.0000054
.00061	.9	298.15	.001088	.000003264
.00061	.9	303.15	.001507	.000004521
.00061	.9	308.15	.0017	.0000051
.00073	.9	298.15	.001056	.000003168
.00073	.9	303.15	.001464	.000004392
.00073	.9	308.15	.001662	.000004986
.00085	.9	298.15	.001025	.000003075
.00085	.9	303.15	.001414	.000004242
.00085	.9	308.15	.001613	.000004839
.00109	.9	298.15	.000969	.000002907
.00109	.9	303.15	.001369	.000004107
.00109	.9	308.15	.00155	.00000465
.00122	.9	298.15	.000938	.000002814
.00122	.9	303.15	.00134	.00000402
.00122	.9	308.15	.00151	.00000453
.00134	.9	298.15	.000913	.000002739
.00134	.9	303.15	.001288	.000003864
.00134	.9	308.15	.001469	.000004407
.00146	.9	298.15	.000894	.000002682
.00146	.9	303.15	.001264	.000003792
.00146	.9	308.15	.00145	.00000435
.0017	.9	298.15	.00085	.00000255
.0017	.9	303.15	.0012	.0000036
.0017	.9	308.15	.001388	.000004164

System: (RS)-2-butanol + potassium ethanoate + water; phases: Liquid
Fixed: Pressure, kPa = 101
Property: Molar conductivity, S*m2/mol (Liquid); method: Alternating current cell with electrodes
Molality, mol/kg of potassium ethanoate	Solvent: Mass fraction of (RS)-2-butanol	Temperature, K	Molar conductivity, S*m2/mol	uncertainty
.00069	.7	298.15	.001457	.000004371
.00069	.7	303.15	.001822	.000005466
.00069	.7	308.15	.00211	.00000633
.00116	.7	298.15	.00136	.00000408
.00116	.7	303.15	.001733	.000005199
.00116	.7	308.15	.002023	.000006069
.00174	.7	298.15	.00128	.00000384
.00174	.7	303.15	.001636	.000004908
.00174	.7	308.15	.00195	.00000585
.00232	.7	298.15	.001206	.000003618
.00232	.7	303.15	.001582	.000004746
.00232	.7	308.15	.00188	.00000564
.0029	.7	298.15	.001143	.000003429
.0029	.7	303.15	.001493	.000004479
.0029	.7	308.15	.001829	.000005487
.00405	.7	298.15	.001046	.000003138
.00405	.7	303.15	.001396	.000004188
.00405	.7	308.15	.00172	.00000516
.00463	.7	298.15	.000993	.000002979
.00463	.7	303.15	.001342	.000004026
.00463	.7	308.15	.00167	.00000501
.00521	.7	298.15	.00095	.00000285
.00521	.7	303.15	.001298	.000003894
.00521	.7	308.15	.00162	.00000486
.00579	.7	298.15	.000907	.000002721
.00579	.7	303.15	.001253	.000003759
.00579	.7	308.15	.00158	.00000474
.00637	.7	298.15	.000871	.000002613
.00637	.7	303.15	.001236	.000003708
.00637	.7	308.15	.00155	.00000465
.00036	.8	298.15	.001471	.000004413
.00036	.8	303.15	.00175	.00000525
.00036	.8	308.15	.00195	.00000585
.00059	.8	298.15	.001407	.000004221
.00059	.8	303.15	.001661	.000004983
.00059	.8	308.15	.00186	.00000558
.00083	.8	298.15	.001336	.000004008
.00083	.8	303.15	.001589	.000004767
.00083	.8	308.15	.0018	.0000054
.00119	.8	298.15	.001271	.000003813
.00119	.8	303.15	.001509	.000004527
.00119	.8	308.15	.00173	.00000519
.00142	.8	298.15	.00124	.00000372
.00142	.8	303.15	.001455	.000004365
.00142	.8	308.15	.00166	.00000498
.00178	.8	298.15	.001179	.000003537
.00178	.8	303.15	.0014	.0000042
.00178	.8	308.15	.0016	.0000048
.00202	.8	298.15	.001143	.000003429
.00202	.8	303.15	.00136	.00000408
.00202	.8	308.15	.001554	.000004662
.00237	.8	298.15	.0011	.0000033
.00237	.8	303.15	.001295	.000003885
.00237	.8	308.15	.001473	.000004419
.00261	.8	298.15	.001064	.000003192
.00261	.8	303.15	.00127	.00000381
.00261	.8	308.15	.001429	.000004287
.00296	.8	298.15	.001	.000003
.00296	.8	303.15	.00124	.00000372
.00296	.8	308.15	.00138	.00000414
.00012	.9	298.15	.001169	.000003507
.00012	.9	303.15	.00166	.00000498
.00012	.9	308.15	.001732	.000005196
.00036	.9	298.15	.001056	.000003168
.00036	.9	303.15	.001521	.000004563
.00036	.9	308.15	.001607	.000004821
.00061	.9	298.15	.000988	.000002964
.00061	.9	303.15	.00142	.00000426
.00061	.9	308.15	.001514	.000004542
.00073	.9	298.15	.00095	.00000285
.00073	.9	303.15	.001388	.000004164
.00073	.9	308.15	.001479	.000004437
.00085	.9	298.15	.00092	.00000276
.00085	.9	303.15	.001356	.000004068
.00085	.9	308.15	.001436	.000004308
.00109	.9	298.15	.000875	.000002625
.00109	.9	303.15	.001294	.000003882
.00109	.9	308.15	.001366	.000004098
.00122	.9	298.15	.000856	.000002568
.00122	.9	303.15	.00126	.00000378
.00122	.9	308.15	.00133	.00000399
.00134	.9	298.15	.000831	.000002493
.00134	.9	303.15	.001229	.000003687
.00134	.9	308.15	.0013	.0000039
.00146	.9	298.15	.0008	.0000024
.00146	.9	303.15	.001193	.000003579
.00146	.9	308.15	.001264	.000003792
.0017	.9	298.15	.000756	.000002268
.0017	.9	303.15	.00114	.00000342
.0017	.9	308.15	.001214	.000003642
