Measured thermophysical data. The ionic liquid 1-ethyl-3-methylimidazolium tris(pentafluoroethyl) trifluorophosphate as alternative extractant for BTEX separation
Source: Fluid Phase Equilib., 2015, 10.1016/j.fluid.2015.06.046
Compound 1: 1-ethyl-3-methylimidazolium tris(pentafluoroethyl)trifluorophosphate, C12H11F18N2P, purity 99.0%
Compound 2: benzene, C6H6, purity 99.8%
Compound 3: toluene, C7H8, purity 99.8%
Compound 4: ethylbenzene, C8H10, purity 99.0%
Compound 5: o-xylene, C8H10, purity 99.0%
Compound 6: hexane, C6H14, purity 99.0%
Compound 7: heptane, C7H16, purity 99.0%
Compound 8: octane, C8H18, purity 99.0%

System: benzene + 1-ethyl-3-methylimidazolium tris(pentafluoroethyl)trifluorophosphate; phases: Liquid mixture 1, Liquid mixture 2
Property: Mole fraction of benzene (Liquid mixture 1); method: Chromatography
Temperature, K	Pressure, kPa	Mole fraction of benzene	uncertainty
293.15	101.325	.929	
313.15	101.325	.917	
333.15	101.325	.91	

System: toluene + 1-ethyl-3-methylimidazolium tris(pentafluoroethyl)trifluorophosphate; phases: Liquid mixture 2, Liquid mixture 1
Property: Mole fraction of toluene (Liquid mixture 2); method: Chromatography
Temperature, K	Pressure, kPa	Mole fraction of toluene	uncertainty
293.15	101.325	.786	
313.15	101.325	.795	
333.15	101.325	.816	

System: ethylbenzene + 1-ethyl-3-methylimidazolium tris(pentafluoroethyl)trifluorophosphate; phases: Liquid mixture 2, Liquid mixture 1
Property: Mole fraction of ethylbenzene (Liquid mixture 2); method: Chromatography
Temperature, K	Pressure, kPa	Mole fraction of ethylbenzene	uncertainty
293.15	101.325	.66	
313.15	101.325	.653	
333.15	101.325	.645	

System: o-xylene + 1-ethyl-3-methylimidazolium tris(pentafluoroethyl)trifluorophosphate; phases: Liquid mixture 2, Liquid mixture 1
Property: Mole fraction of o-xylene (Liquid mixture 2); method: Chromatography
Temperature, K	Pressure, kPa	Mole fraction of o-xylene	uncertainty
293.15	101.325	.727	
313.15	101.325	.733	
333.15	101.325	.755	

System: hexane + 1-ethyl-3-methylimidazolium tris(pentafluoroethyl)trifluorophosphate; phases: Liquid mixture 2, Liquid mixture 1
Property: Mole fraction of hexane (Liquid mixture 2); method: Chromatography
Temperature, K	Pressure, kPa	Mole fraction of hexane	uncertainty
293.15	101.325	.056	
313.15	101.325	.078	
333.15	101.325	.08	

System: heptane + 1-ethyl-3-methylimidazolium tris(pentafluoroethyl)trifluorophosphate; phases: Liquid mixture 2, Liquid mixture 1
Property: Mole fraction of heptane (Liquid mixture 2); method: Chromatography
Temperature, K	Pressure, kPa	Mole fraction of heptane	uncertainty
293.15	101.325	.03	
313.15	101.325	.039	
333.15	101.325	.043	

System: toluene + heptane + 1-ethyl-3-methylimidazolium tris(pentafluoroethyl)trifluorophosphate; phases: Liquid mixture 2, Liquid mixture 1
Property: Mole fraction of heptane (Liquid mixture 2); method: Chromatography
Property: Mole fraction of toluene (Liquid mixture 1); method: Chromatography
Property: Mole fraction of heptane (Liquid mixture 1); method: Chromatography
Temperature, K	Pressure, kPa	Mole fraction of toluene	Mole fraction of heptane	uncertainty	Mole fraction of toluene	uncertainty	Mole fraction of heptane	uncertainty
293.15	100	.13	.05	.005	.098	.005	.902	.005
293.15	100	.204	.049	.005	.166	.005	.834	.005
293.15	100	.347	.049	.005	.307	.005	.693	.005
293.15	100	.446	.049	.005	.442	.005	.558	.005
293.15	100	.521	.047	.005	.583	.005	.417	.005
293.15	100	.572	.046	.005	.675	.005	.325	.005
293.15	100	.612	.043	.005	.753	.005	.247	.005
293.15	100	.651	.037	.005	.835	.005	.165	.005

System: benzene + hexane + 1-ethyl-3-methylimidazolium tris(pentafluoroethyl)trifluorophosphate; phases: Liquid mixture 2, Liquid mixture 1
Property: Mole fraction of hexane (Liquid mixture 2); method: Chromatography
Property: Mole fraction of benzene (Liquid mixture 1); method: Chromatography
Property: Mole fraction of hexane (Liquid mixture 1); method: Chromatography
Temperature, K	Pressure, kPa	Mole fraction of benzene	Mole fraction of hexane	uncertainty	Mole fraction of benzene	uncertainty	Mole fraction of hexane	uncertainty
293.15	100	.205	.101	.005	.1	.005	.9	.005
293.15	100	.284	.106	.005	.161	.005	.839	.005
293.15	100	.44	.105	.005	.299	.005	.701	.005
293.15	100	.522	.101	.005	.421	.005	.579	.005
293.15	100	.585	.097	.005	.554	.005	.446	.005
293.15	100	.624	.095	.005	.651	.005	.349	.005
293.15	100	.65	.078	.005	.736	.005	.264	.005

System: ethylbenzene + octane + 1-ethyl-3-methylimidazolium tris(pentafluoroethyl)trifluorophosphate; phases: Liquid mixture 2, Liquid mixture 1
Property: Mole fraction of octane (Liquid mixture 2); method: Chromatography
Property: Mole fraction of ethylbenzene (Liquid mixture 1); method: Chromatography
Property: Mole fraction of octane (Liquid mixture 1); method: Chromatography
Temperature, K	Pressure, kPa	Mole fraction of ethylbenzene	Mole fraction of octane	uncertainty	Mole fraction of ethylbenzene	uncertainty	Mole fraction of octane	uncertainty
293.15	100	.099	.014	.005	.124	.005	.876	.005
293.15	100	.149	.015	.005	.208	.005	.792	.005
293.15	100	.25	.016	.005	.365	.005	.635	.005
293.15	100	.333	.017	.005	.492	.005	.508	.005
293.15	100	.404	.017	.005	.615	.005	.385	.005
293.15	100	.459	.016	.005	.709	.005	.291	.005
293.15	100	.505	.015	.005	.787	.005	.212	.005
293.15	100	.554	.013	.005	.852	.005	.148	.005
293.15	100	.576	.01	.005	.899	.005	.101	.005

System: o-xylene + octane + 1-ethyl-3-methylimidazolium tris(pentafluoroethyl)trifluorophosphate; phases: Liquid mixture 2, Liquid mixture 1
Property: Mole fraction of octane (Liquid mixture 2); method: Chromatography
Property: Mole fraction of o-xylene (Liquid mixture 1); method: Chromatography
Property: Mole fraction of octane (Liquid mixture 1); method: Chromatography
Temperature, K	Pressure, kPa	Mole fraction of o-xylene	Mole fraction of octane	uncertainty	Mole fraction of o-xylene	uncertainty	Mole fraction of octane	uncertainty
293.15	100	.117	.007	.005	.117	.005	.881	.005
293.15	100	.176	.008	.005	.205	.005	.792	.005
293.15	100	.282	.01	.005	.361	.005	.638	.005
293.15	100	.371	.012	.005	.502	.005	.496	.005
293.15	100	.439	.013	.005	.619	.005	.38	.005
293.15	100	.488	.013	.005	.704	.005	.295	.005
293.15	100	.543	.012	.005	.784	.005	.215	.005
293.15	100	.588	.01	.005	.853	.005	.145	.005
293.15	100	.63	.007	.005	.91	.005	.088	.005
