Measured thermophysical data. The ionic liquid effect on solubility of aniline, a simple aromatic amine: Perspective of solvents' mixture
Source: Fluid Phase Equilib., 2012, 10.1016/j.fluid.2012.04.015
Compound 1: aniline, C6H7N, purity 99.5%
Compound 2: 1-ethyl-3-methylimidazolium bis[(trifluoromethyl)sulfonyl]imide, C8H11F6N3O4S2, purity 99%
Compound 3: 1-butyl-3-methylimidazolium bis[(trifluoromethyl)sulfonyl]imide, C10H15F6N3O4S2, purity 99%
Compound 4: 1-hexyl-3-methylimidazolium bis[(trifluoromethyl)sulfonyl]imide, C12H19F6N3O4S2, purity 99%
Compound 5: 1-octyl-3-methylimidazolium bis[(trifluoromethyl)sulfonyl]imide, C14H23F6N3O4S2, purity 99%
Compound 6: 1-decyl-3-methylimidazolium bis(trifluoromethylsulfonyl)amide, C16H27F6N3O4S2, purity 99%
Compound 7: 1-ethyl-3-methylimidazolium trifluoromethanesulfonate, C7H11F3N2O3S, purity 99%
Compound 8: 1-butyl-3-methylimidazolium trifluoromethanesulfonate, C9H15F3N2O3S, purity 99%
Compound 9: 1-hexyl-3-methylimidazolium trifluoromethanesulfonate, C11H19F3N2O3S, purity 99%
Compound 10: 1-methyl-3-octylimidazolium trifluoromethanesulfonate, C14H25F3N2O3S, purity 99%
Compound 11: 1-decyl-3-methylimidazolium trifluoromethansulfate, C15H27F3N2O3S, purity 99%

System: aniline + 1-ethyl-3-methylimidazolium trifluoromethanesulfonate; phases: Liquid, Liquid
Fixed: Pressure, kPa = 100
Property: Liquid-liquid equilibrium temperature, K (Liquid); method: Visual observation
Mole fraction of 1-ethyl-3-methylimidazolium trifluoromethanesulfonate	Liquid-liquid equilibrium temperature, K	uncertainty
.3302	269.75	.03
.3524	272.24	.03
.3834	273.84	.03
.4107	274.03	.03
.4308	274.31	.03
.4618	272.14	.03
.4957	270.01	.03

System: aniline + 1-butyl-3-methylimidazolium trifluoromethanesulfonate; phases: Liquid, Liquid
Fixed: Pressure, kPa = 100
Property: Liquid-liquid equilibrium temperature, K (Liquid); method: Visual observation
Mole fraction of 1-butyl-3-methylimidazolium trifluoromethanesulfonate	Liquid-liquid equilibrium temperature, K	uncertainty
.3074	270.13	.03
.3212	277.3	.03
.3597	286.98	.03
.3987	288.97	.03
.4109	289.14	.03
.4499	286.51	.03
.5064	277.34	.03
.5411	271.24	.03

System: aniline + 1-hexyl-3-methylimidazolium trifluoromethanesulfonate; phases: Liquid, Liquid
Fixed: Pressure, kPa = 100
Property: Liquid-liquid equilibrium temperature, K (Liquid); method: Visual observation
Mole fraction of 1-hexyl-3-methylimidazolium trifluoromethanesulfonate	Liquid-liquid equilibrium temperature, K	uncertainty
.2641	266.74	.03
.2788	278.47	.03
.2984	295.37	.03
.3417	324.44	.03
.3977	337.98	.03
.4541	336.88	.03
.5147	324.09	.03
.567	304.68	.03
.621	277.51	.03

System: aniline + 1-methyl-3-octylimidazolium trifluoromethanesulfonate; phases: Liquid, Liquid
Fixed: Pressure, kPa = 100
Property: Liquid-liquid equilibrium temperature, K (Liquid); method: Visual observation
Mole fraction of 1-methyl-3-octylimidazolium trifluoromethanesulfonate	Liquid-liquid equilibrium temperature, K	uncertainty
.2231	286.96	.03
.2369	324.45	.03
.2485	340.32	.03
.2758	375	.03
.6239	369.88	.03
.6512	342.58	.03
.6598	324.37	.03
.6656	304.87	.03

System: aniline + 1-decyl-3-methylimidazolium trifluoromethansulfate; phases: Liquid, Liquid
Fixed: Pressure, kPa = 100
Property: Liquid-liquid equilibrium temperature, K (Liquid); method: Visual observation
Mole fraction of 1-decyl-3-methylimidazolium trifluoromethansulfate	Liquid-liquid equilibrium temperature, K	uncertainty
.1579	290.21	.03
.1605	295.87	.03
.1658	318.84	.03
.1764	378.13	.03
.7055	375.1	.03
.7235	350.56	.03
.7395	306	.03
.7419	290.31	.03

System: aniline + 1-decyl-3-methylimidazolium trifluoromethansulfate; phases: Crystal, Liquid
Fixed: Pressure, kPa = 100
Property: Solid-liquid equilibrium temperature, K (Crystal); method: Visual observation
Mole fraction of 1-decyl-3-methylimidazolium trifluoromethansulfate	Solid-liquid equilibrium temperature, K	uncertainty
0	267	.03
.0725	270.23	.03
.0851	277.68	.03
.0997	283.53	.03
.1125	286.32	.03
.7419	290.32	.03
.7632	291.1	.03
.8027	292.98	.03
.8412	294.23	.03
.9156	295.34	.03
.9651	296.01	.03

System: aniline + 1-decyl-3-methylimidazolium bis(trifluoromethylsulfonyl)amide + 1-hexyl-3-methylimidazolium trifluoromethanesulfonate; phases: Liquid, Liquid
Fixed: Pressure, kPa = 100
Property: Liquid-liquid equilibrium temperature, K (Liquid); method: Visual observation
Mole fraction of 1-hexyl-3-methylimidazolium trifluoromethanesulfonate	Mole fraction of 1-decyl-3-methylimidazolium bis(trifluoromethylsulfonyl)amide	Liquid-liquid equilibrium temperature, K	uncertainty
.1543	.1543	270.19	.03
.1593	.1593	278.81	.03
.1758	.1758	292.81	.03
.1999	.1999	303.83	.03
.2168	.2168	303.59	.03
.2339	.2339	300.41	.03
.2584	.2584	289.31	.03
.2729	.2729	280.37	.03
.2816	.2816	273.61	.03
.0377	.3392	271.52	.03
.0415	.3738	272.35	.03
.0436	.3928	272.64	.03
.0462	.4157	271.39	.03

System: aniline + 1-ethyl-3-methylimidazolium bis[(trifluoromethyl)sulfonyl]imide + 1-hexyl-3-methylimidazolium trifluoromethanesulfonate; phases: Liquid, Liquid
Fixed: Pressure, kPa = 100
Property: Liquid-liquid equilibrium temperature, K (Liquid); method: Visual observation
Mole fraction of 1-hexyl-3-methylimidazolium trifluoromethanesulfonate	Mole fraction of 1-ethyl-3-methylimidazolium bis[(trifluoromethyl)sulfonyl]imide	Liquid-liquid equilibrium temperature, K	uncertainty
.1934	.1934	270.98	.03
.2161	.2161	271.25	.03
.2316	.2316	270.1	.03
