Measured thermophysical data. Ternary phase diagrams of ethyl paraben and propyl paraben in ethanol aqueous solvents
Source: Fluid Phase Equilib., 2014, 10.1016/j.fluid.2014.05.036
Compound 1: propyl p-hydroxybenzoate, C10H12O3, purity 99%
Compound 2: ethyl p-hydroxybenzoate, C9H10O3, purity 99%
Compound 3: water, H2O
Compound 4: ethanol, C2H6O, purity 99.7%

System: propyl p-hydroxybenzoate; phases: Crystal, Liquid, Air at 1 atmosphere
Property: Normal melting temperature, K (Crystal); method: DSC/DTA
Normal melting temperature, K	uncertainty
369.55	

System: propyl p-hydroxybenzoate; phases: Crystal, Liquid, Air at 1 atmosphere
Property: Molar enthalpy of transition or fusion, kJ/mol (Crystal); method: DSC
Molar enthalpy of transition or fusion, kJ/mol	uncertainty
26.507	

System: ethyl p-hydroxybenzoate; phases: Crystal, Liquid, Air at 1 atmosphere
Property: Normal melting temperature, K (Crystal); method: DSC/DTA
Normal melting temperature, K	uncertainty
388.65	

System: ethyl p-hydroxybenzoate; phases: Crystal, Liquid, Air at 1 atmosphere
Property: Molar enthalpy of transition or fusion, kJ/mol (Crystal); method: DSC
Molar enthalpy of transition or fusion, kJ/mol	uncertainty
25.761	

System: ethanol + ethyl p-hydroxybenzoate + water; phases: Liquid, Crystal
Fixed: Pressure, kPa = 101
Property: Mass ratio of solute to solvent of ethyl p-hydroxybenzoate (Liquid); method: gravimetric method
Temperature, K	Solvent: Mass fraction of ethanol	Mass ratio of solute to solvent of ethyl p-hydroxybenzoate	uncertainty
323.15	0	.0022	.00016
323.15	.1	.006	.00012
323.15	.5	.92	.011
323.15	.7	1.48	.012
323.15	.9	1.47	.07
323.15	1	1.44	.0065

System: ethanol + propyl p-hydroxybenzoate + water; phases: Liquid, Crystal
Fixed: Pressure, kPa = 101
Property: Mass ratio of solute to solvent of propyl p-hydroxybenzoate (Liquid); method: gravimetric method
Temperature, K	Solvent: Mass fraction of ethanol	Mass ratio of solute to solvent of propyl p-hydroxybenzoate	uncertainty
323.15	0	.0011	.00003
323.15	.1	.0022	.00012
323.15	.7	2.46	.016
323.15	.9	2.44	.028
323.15	1	2.18	.037
313.15	0	.00035	.00004
313.15	.1	.0015	.00012
313.15	.7	1.53	.019
313.15	.9	1.75	.026
313.15	1	1.67	.054

System: ethyl p-hydroxybenzoate + water; phases: Liquid, Crystal
Property: Mass ratio of solute to solvent of ethyl p-hydroxybenzoate (Liquid); method: gravimetric method
Temperature, K	Pressure, kPa	Mass ratio of solute to solvent of ethyl p-hydroxybenzoate	uncertainty
323.15	101	.0022	.00016

System: ethanol + ethyl p-hydroxybenzoate; phases: Liquid, Crystal
Property: Mass ratio of solute to solvent of ethyl p-hydroxybenzoate (Liquid); method: gravimetric method
Temperature, K	Pressure, kPa	Mass ratio of solute to solvent of ethyl p-hydroxybenzoate	uncertainty
323.15	101	1.44	.0065

System: propyl p-hydroxybenzoate + water; phases: Liquid, Crystal
Property: Mass ratio of solute to solvent of propyl p-hydroxybenzoate (Liquid); method: gravimetric method
Temperature, K	Pressure, kPa	Mass ratio of solute to solvent of propyl p-hydroxybenzoate	uncertainty
323.15	101	.0011	.00003
313.15	101	.00035	.00004

System: ethanol + propyl p-hydroxybenzoate; phases: Liquid, Crystal
Property: Mass ratio of solute to solvent of propyl p-hydroxybenzoate (Liquid); method: gravimetric method
Temperature, K	Pressure, kPa	Mass ratio of solute to solvent of propyl p-hydroxybenzoate	uncertainty
323.15	101	2.18	.037
313.15	101	1.67	.054
