Measured thermophysical data. Thermodynamics of solubility of thiomalic acid in different organicsolvents from 278.15 K to 333.15 K
Source: Fluid Phase Equilib., 2013, 10.1016/j.fluid.2013.05.002
Compound 1: butanedioic acid, mercapto-, C4H6O4S, purity 99.5%
Compound 2: methanol, CH4O, purity 99.5%
Compound 3: ethanol, C2H6O, purity 99.5%
Compound 4: 2-propanol, C3H8O, purity 99.5%
Compound 5: 1-butanol, C4H10O, purity 99.5%
Compound 6: acetone, C3H6O, purity 99.5%
Compound 7: acetonitrile, C2H3N, purity 99.5%
Compound 8: ethyl ethanoate, C4H8O2, purity 99.5%

System: methanol + butanedioic acid, mercapto-; phases: Liquid, Crystal
Fixed: Pressure, kPa = 101
Property: Mole fraction of butanedioic acid, mercapto- (Liquid); method: gravimetric method
Temperature, K	Mole fraction of butanedioic acid, mercapto-	uncertainty
278.15	.1172	.0028
283.15	.1355	.0015
288.15	.1569	.0017
293.15	.1785	.0029
298.15	.2032	.0035
303.15	.228	.0021
308.15	.256	.0032
313.15	.2847	.0017
318.15	.3143	.0045
323.15	.3454	.0012
328.15	.3788	.0013
333.15	.4123	.0028

System: ethanol + butanedioic acid, mercapto-; phases: Liquid, Crystal
Fixed: Pressure, kPa = 101
Property: Mole fraction of butanedioic acid, mercapto- (Liquid); method: gravimetric method
Temperature, K	Mole fraction of butanedioic acid, mercapto-	uncertainty
278.15	.1384	.0036
283.15	.1542	.0014
288.15	.1688	.0022
293.15	.1861	.0051
298.15	.2046	.0034
303.15	.2237	.0029
308.15	.2439	.0023
313.15	.2649	.0064
318.15	.2874	.0008
323.15	.3104	.0027
328.15	.3351	.0031
333.15	.3607	.0019

System: 2-propanol + butanedioic acid, mercapto-; phases: Liquid, Crystal
Fixed: Pressure, kPa = 101
Property: Mole fraction of butanedioic acid, mercapto- (Liquid); method: gravimetric method
Temperature, K	Mole fraction of butanedioic acid, mercapto-	uncertainty
278.15	.1002	.0041
283.15	.1123	.0034
288.15	.1261	.0019
293.15	.1406	.0026
298.15	.1563	.0015
303.15	.1741	.0036
308.15	.1921	.0031
313.15	.2125	.0019
318.15	.2333	.0012
323.15	.2562	.0027
328.15	.2798	.0045
333.15	.3046	.0023

System: butanedioic acid, mercapto- + 1-butanol; phases: Liquid, Crystal
Fixed: Pressure, kPa = 101
Property: Mole fraction of butanedioic acid, mercapto- (Liquid); method: gravimetric method
Temperature, K	Mole fraction of butanedioic acid, mercapto-	uncertainty
278.15	.0909	.0017
283.15	.1046	.0027
288.15	.1185	.0018
293.15	.1344	.0009
298.15	.1526	.0011
303.15	.1715	.0023
308.15	.1918	.0019
313.15	.2129	.0051
318.15	.2361	.0007
323.15	.2605	.0039
328.15	.2857	.0023
333.15	.3126	.0017

System: acetone + butanedioic acid, mercapto-; phases: Liquid, Crystal
Fixed: Pressure, kPa = 101
Property: Mole fraction of butanedioic acid, mercapto- (Liquid); method: gravimetric method
Temperature, K	Mole fraction of butanedioic acid, mercapto-	uncertainty
278.15	.1328	.001
283.15	.1419	.0021
288.15	.1494	.0024
293.15	.1589	.0019
298.15	.1681	.0046
303.15	.1783	.0037
308.15	.1895	.0029
313.15	.2018	.0012
318.15	.213	.0022
323.15	.226	.0013
328.15	.2403	.0026

System: butanedioic acid, mercapto- + acetonitrile; phases: Liquid, Crystal
Fixed: Pressure, kPa = 101
Property: Mole fraction of butanedioic acid, mercapto- (Liquid); method: gravimetric method
Temperature, K	Mole fraction of butanedioic acid, mercapto-	uncertainty
278.15	.0114	.0019
283.15	.0159	.0023
288.15	.0212	.0016
293.15	.0296	.0018
298.15	.0392	.0017
303.15	.0513	.0023
308.15	.0656	.0034
313.15	.0853	.0025
318.15	.1084	.0053
323.15	.1353	.0013
328.15	.1683	.0005
333.15	.2059	.0009

System: butanedioic acid, mercapto- + ethyl ethanoate; phases: Liquid, Crystal
Fixed: Pressure, kPa = 101
Property: Mole fraction of butanedioic acid, mercapto- (Liquid); method: gravimetric method
Temperature, K	Mole fraction of butanedioic acid, mercapto-	uncertainty
278.15	.0454	.0003
283.15	.0482	.0015
288.15	.0515	.0008
293.15	.0547	.0008
298.15	.0595	.001
303.15	.0634	.0017
308.15	.068	.0021
313.15	.0732	.0029
318.15	.0787	.0012
323.15	.0849	.0015
328.15	.0915	.0002
333.15	.0991	.0011
