Measured thermophysical data. Solubility of carbon dioxide, nitrous oxide and methane in ionic liquids at pressures close to atmospheric
Source: Fluid Phase Equilib., 2014, 10.1016/j.fluid.2014.03.015
Compound 1: carbon dioxide, CO2
Compound 2: methane, CH4
Compound 3: nitrous oxide, N2O
Compound 4: 1-butyl-3-methylimidazolium tetrafluoroborate, C8H15BF4N2, purity 99%
Compound 5: 1-butyl-3-methylpyridinium tetrafluoroborate, C10H16BF4N, purity 97%
Compound 6: 1-ethyl-3-methylimidazolium bis(trifluoromethylsulfonyl)imide, C8H11F6N3O4S2, purity 97%
Compound 7: 1-butyl-3-methylimidazolium trifluoromethanesulfonate, C9H15F3N2O3S, purity 99.5%
Compound 8: 3-(2-hydroxyethyl)-1-methylimidazolium hexafluorophosphate, C6H11F6N2OP, purity 98%
Compound 9: 1-(2-hydroxyethyl)-3-methylimidazolium bis(trifluoromethylsulfonyl)imide, C8H11F6N3O5S2, purity 99.5%
Compound 10: 1-(2-methoxyethyl)-3-methyl-1H-imidazolium bis((trifluoromethyl)sulfonyl)amide, C9H13F6N3O5S2, purity 98%
Compound 11: hexyltrimethylammonium 1,1,1-trifluoro-N-[(trifluoromethyl)sulfonyl]methanesulfonamide, C11H22F6N2O4S2, purity 99.5%
Compound 12: trihexyl(tetradecyl)phosphonium 1,1,1-trifluoro-N-[(trifluoromethyl)sulfonyl]methanesulfonamide, C34H68F6NO4PS2, purity 99.5%
Compound 13: 1-butyl-3-methylimidazolium octylsulfate, C16H32N2O4S, purity 95%
Compound 14: 1,3-dimethylimidazolium methylphosphonate, C6H13N2O3P, purity 98%
Compound 15: 1-butyl-3-methylimidazolium bis(perfluoroethylsulfonyl)imide, C12H15F10N3O4S2, purity 98%
Compound 16: 1-(2-hydroxyethyl)-3-methylimidazolium tetrafluoroborate, C6H11BF4N2O, purity 98%

System: carbon dioxide + hexyltrimethylammonium 1,1,1-trifluoro-N-[(trifluoromethyl)sulfonyl]methanesulfonamide; phases: Liquid, Gas
Property: Mole fraction of carbon dioxide (Liquid); method: Phase equilibration
Temperature, K	Pressure, kPa	Mole fraction of carbon dioxide	uncertainty
296.45	48	.0159	.0000318
303.3	49.33	.014913	.000029826
308.15	50.3	.014117	.000028234
313.65	51.42	.013159	.000026318

System: carbon dioxide + trihexyl(tetradecyl)phosphonium 1,1,1-trifluoro-N-[(trifluoromethyl)sulfonyl]methanesulfonamide; phases: Liquid, Gas
Property: Mole fraction of carbon dioxide (Liquid); method: Phase equilibration
Temperature, K	Pressure, kPa	Mole fraction of carbon dioxide	uncertainty
298.4	48.46	.015438	.000030876
305.4	49.81	.013556	.000027112
309.25	50.54	.012693	.000025386
315.5	51.7	.011523	.000023046

System: carbon dioxide + 1-butyl-3-methylimidazolium bis(perfluoroethylsulfonyl)imide; phases: Liquid, Gas
Property: Mole fraction of carbon dioxide (Liquid); method: Phase equilibration
Temperature, K	Pressure, kPa	Mole fraction of carbon dioxide	uncertainty
298.25	46.24	.014334	.000028668
303.15	47.24	.013609	.000027218
305.15	47.81	.012823	.000025646
313.65	49.5	.011797	.000023594

System: carbon dioxide + 1-ethyl-3-methylimidazolium bis(trifluoromethylsulfonyl)imide; phases: Liquid, Gas
Property: Mole fraction of carbon dioxide (Liquid); method: Phase equilibration
Temperature, K	Pressure, kPa	Mole fraction of carbon dioxide	uncertainty
298.65	47.64	.015156	.000030312
305.15	48.95	.014163	.000028326
309.65	49.92	.013269	.000026538
315	50.98	.012572	.000025144

System: carbon dioxide + 1-butyl-3-methylimidazolium trifluoromethanesulfonate; phases: Liquid, Gas
Property: Mole fraction of carbon dioxide (Liquid); method: Phase equilibration
Temperature, K	Pressure, kPa	Mole fraction of carbon dioxide	uncertainty
294.85	48.35	.011534	.000023068
301.55	49.9	.010394	.000020788
307.65	51.33	.009352	.000018704
312.05	52.23	.008946	.000017892

System: carbon dioxide + 1-butyl-3-methylpyridinium tetrafluoroborate; phases: Liquid, Gas
Property: Mole fraction of carbon dioxide (Liquid); method: Phase equilibration
Temperature, K	Pressure, kPa	Mole fraction of carbon dioxide	uncertainty
296.9	51.04	.011761	.000023522
303.3	52.38	.0108	.0000216
308.35	53.36	.010374	.000020748
313.4	54.37	.009844	.000019688

System: carbon dioxide + 1-butyl-3-methylimidazolium tetrafluoroborate; phases: Liquid, Gas
Property: Mole fraction of carbon dioxide (Liquid); method: Phase equilibration
Temperature, K	Pressure, kPa	Mole fraction of carbon dioxide	uncertainty
299.35	47.51	.008218	.000016436
303.65	48.5	.007672	.000015344
308.85	49.65	.007117	.000014234
313.85	50.72	.006662	.000013324

System: carbon dioxide + 1,3-dimethylimidazolium methylphosphonate; phases: Liquid, Gas
Property: Mole fraction of carbon dioxide (Liquid); method: Phase equilibration
Temperature, K	Pressure, kPa	Mole fraction of carbon dioxide	uncertainty
299.55	48.4	.007519	.000015038
303.03	49.2	.007073	.000014146
308.91	50.48	.006473	.000012946
314.21	51.65	.005921	.000011842

System: carbon dioxide + 1-(2-hydroxyethyl)-3-methylimidazolium tetrafluoroborate; phases: Liquid, Gas
Property: Mole fraction of carbon dioxide (Liquid); method: Phase equilibration
Temperature, K	Pressure, kPa	Mole fraction of carbon dioxide	uncertainty
298.15	43.73	.004057	.000008114
302.65	44.4	.00399	.00000798
308.95	45.35	.003814	.000007628
312.35	45.85	.003811	.000007622

System: nitrous oxide + hexyltrimethylammonium 1,1,1-trifluoro-N-[(trifluoromethyl)sulfonyl]methanesulfonamide; phases: Liquid, Gas
Property: Mole fraction of nitrous oxide (Liquid); method: Phase equilibration
Temperature, K	Pressure, kPa	Mole fraction of nitrous oxide	uncertainty
298.95	51.07	.014939	.000029878
302.15	50.57	.014939	.000029878
306.35	51.52	.014042	.000028084
307.85	51.9	.013578	.000027156
312.15	52.9	.012614	.000025228
314.15	53.32	.012327	.000024654

System: nitrous oxide + trihexyl(tetradecyl)phosphonium 1,1,1-trifluoro-N-[(trifluoromethyl)sulfonyl]methanesulfonamide; phases: Liquid, Gas
Property: Mole fraction of nitrous oxide (Liquid); method: Phase equilibration
Temperature, K	Pressure, kPa	Mole fraction of nitrous oxide	uncertainty
293.95	48.36	.023941	.000047882
298.05	49.25	.022022	.000044044
302.35	50.21	.019821	.000039642
307.35	51.26	.01796	.00003592
314.25	52.68	.015671	.000031342

System: nitrous oxide + 1-butyl-3-methylimidazolium bis(perfluoroethylsulfonyl)imide; phases: Liquid, Gas
Property: Mole fraction of nitrous oxide (Liquid); method: Phase equilibration
Temperature, K	Pressure, kPa	Mole fraction of nitrous oxide	uncertainty
298.95	47.97	.021789	.000043578
299.65	48.09	.021763	.000043526
302.85	48.74	.021273	.000042546
309.95	50.23	.020067	.000040134
314.25	50.96	.019965	.00003993

System: nitrous oxide + 1-ethyl-3-methylimidazolium bis(trifluoromethylsulfonyl)imide; phases: Liquid, Gas
Property: Mole fraction of nitrous oxide (Liquid); method: Phase equilibration
Temperature, K	Pressure, kPa	Mole fraction of nitrous oxide	uncertainty
298.95	48.16	.011813	.000023626
302.55	48.96	.010923	.000021846
308.05	50.19	.00959	.00001918
313.15	51.38	.00818	.00001636

System: nitrous oxide + 1-butyl-3-methylimidazolium trifluoromethanesulfonate; phases: Liquid, Gas
Property: Mole fraction of nitrous oxide (Liquid); method: Phase equilibration
Temperature, K	Pressure, kPa	Mole fraction of nitrous oxide	uncertainty
299.15	38.25	.006467	.000012934
303.15	38.89	.006092	.000012184
308.75	39.77	.005631	.000011262
313.25	40.58	.004976	.000009952

System: nitrous oxide + 1-butyl-3-methylpyridinium tetrafluoroborate; phases: Liquid, Gas
Property: Mole fraction of nitrous oxide (Liquid); method: Phase equilibration
Temperature, K	Pressure, kPa	Mole fraction of nitrous oxide	uncertainty
298.45	49.35	.006218	.000012436
304.05	50.44	.005212	.000010424
308.15	51.3	.004506	.000009012
313.05	52.27	.003893	.000007786

System: nitrous oxide + 1-butyl-3-methylimidazolium tetrafluoroborate; phases: Liquid, Gas
Property: Mole fraction of nitrous oxide (Liquid); method: Phase equilibration
Temperature, K	Pressure, kPa	Mole fraction of nitrous oxide	uncertainty
303.15	53.06	.006813	.000013626
308.15	54.2	.006275	.00001255
313.15	55.35	.005722	.000011444

System: nitrous oxide + 1-(2-hydroxyethyl)-3-methylimidazolium tetrafluoroborate; phases: Liquid, Gas
Property: Mole fraction of nitrous oxide (Liquid); method: Phase equilibration
Temperature, K	Pressure, kPa	Mole fraction of nitrous oxide	uncertainty
295.35	51.4	.004018	.000008036
298.05	51.96	.003853	.000007706
304.05	53.28	.003358	.000006716
308.35	54.27	.002945	.00000589
313.95	55.53	.002464	.000004928

System: nitrous oxide + 1-butyl-3-methylimidazolium octylsulfate; phases: Liquid, Gas
Property: Mole fraction of nitrous oxide (Liquid); method: Phase equilibration
Temperature, K	Pressure, kPa	Mole fraction of nitrous oxide	uncertainty
298.15	49.85	.009343	.000018686
302.75	50.77	.00882	.00001764
308.15	51.92	.007999	.000015998
313.75	53.14	.007065	.00001413

System: methane + hexyltrimethylammonium 1,1,1-trifluoro-N-[(trifluoromethyl)sulfonyl]methanesulfonamide; phases: Liquid, Gas
Property: Mole fraction of methane (Liquid); method: Phase equilibration
Temperature, K	Pressure, kPa	Mole fraction of methane	uncertainty
298.95	51.07	.001668	.000003336
304.45	52.08	.001425	.00000285
308.05	52.77	.001186	.000002372
313.15	53.78	.000717	.000001434

System: methane + 1-ethyl-3-methylimidazolium bis(trifluoromethylsulfonyl)imide; phases: Liquid, Gas
Property: Mole fraction of methane (Liquid); method: Phase equilibration
Temperature, K	Pressure, kPa	Mole fraction of methane	uncertainty
299.65	50.21	.001939	.000003878
300.65	50.48	.001454	.000002908
304.35	51.18	.00109	.00000218
310.15	52.29	.000502	.000001004
312.35	52.68	.000418	.000000836

System: methane + 1-butyl-3-methylimidazolium trifluoromethanesulfonate; phases: Liquid, Gas
Property: Mole fraction of methane (Liquid); method: Phase equilibration
Temperature, K	Pressure, kPa	Mole fraction of methane	uncertainty
294.15	51.32	.00112	.00000224
297.85	51.98	.001086	.000002172
303.05	52.96	.000895	.00000179
307.75	53.84	.000731	.000001462
312.75	54.82	.000431	.000000862

System: methane + 1-butyl-3-methylimidazolium tetrafluoroborate; phases: Liquid, Gas
Property: Mole fraction of methane (Liquid); method: Phase equilibration
Temperature, K	Pressure, kPa	Mole fraction of methane	uncertainty
297.95	53.34	.00693	.00001386
304.15	54.58	.00449	.00000898
307.45	55.21	.00392	.00000784
312.95	56.3	.00202	.00000404

System: methane + 1,3-dimethylimidazolium methylphosphonate; phases: Liquid, Gas
Property: Mole fraction of methane (Liquid); method: Phase equilibration
Temperature, K	Pressure, kPa	Mole fraction of methane	uncertainty
298.15	51.02	.000877	.000001754
303.25	51.99	.000718	.000001436
307.65	52.87	.000511	.000001022
312.95	53.94	.000261	.000000522

System: methane + 1-(2-hydroxyethyl)-3-methylimidazolium tetrafluoroborate; phases: Liquid, Gas
Property: Mole fraction of methane (Liquid); method: Phase equilibration
Temperature, K	Pressure, kPa	Mole fraction of methane	uncertainty
298.65	50.98	.000932	.000001864
302.95	51.91	.000573	.000001146
308.05	52.88	.000415	.00000083
312.65	53.77	.000241	.000000482

System: methane + 3-(2-hydroxyethyl)-1-methylimidazolium hexafluorophosphate; phases: Liquid, Gas
Property: Mole fraction of methane (Liquid); method: Phase equilibration
Temperature, K	Pressure, kPa	Mole fraction of methane	uncertainty
298.45	50.79	.001167	.000002334
300.85	51.26	.001026	.000002052
303.95	51.84	.000912	.000001824
308.15	52.61	.000809	.000001618
312.95	53.5	.000659	.000001318

System: nitrous oxide + 1-(2-methoxyethyl)-3-methyl-1H-imidazolium bis((trifluoromethyl)sulfonyl)amide; phases: Liquid, Gas
Property: Mole fraction of nitrous oxide (Liquid); method: Phase equilibration
Temperature, K	Pressure, kPa	Mole fraction of nitrous oxide	uncertainty
302.25	48.27	.013699	.000027398
306.75	49.27	.012727	.000025454
308.45	49.63	.012447	.000024894
313.45	50.73	.011447	.000022894

System: nitrous oxide + 1-(2-hydroxyethyl)-3-methylimidazolium bis(trifluoromethylsulfonyl)imide; phases: Liquid, Gas
Property: Mole fraction of nitrous oxide (Liquid); method: Phase equilibration
Temperature, K	Pressure, kPa	Mole fraction of nitrous oxide	uncertainty
296.45	48.34	.012287	.000024574
301.65	49.42	.011458	.000022916
301.85	49.48	.01136	.00002272
308.45	50.92	.01012	.00002024
315.25	52.41	.008856	.000017712

System: nitrous oxide + 3-(2-hydroxyethyl)-1-methylimidazolium hexafluorophosphate; phases: Liquid, Gas
Property: Mole fraction of nitrous oxide (Liquid); method: Phase equilibration
Temperature, K	Pressure, kPa	Mole fraction of nitrous oxide	uncertainty
294.65	49.43	.007118	.000014236
297.35	50.07	.006667	.000013334
302.65	51.22	.00606	.00001212
307.65	52.32	.005484	.000010968
312.45	53.33	.005043	.000010086

System: methane + 1-butyl-3-methylimidazolium octylsulfate; phases: Liquid, Gas
Property: Mole fraction of methane (Liquid); method: Phase equilibration
Temperature, K	Pressure, kPa	Mole fraction of methane	uncertainty
300.85	50.93	.001204	.000002408
303.55	51.43	.001057	.000002114
308.15	52.3	.000766	.000001532
313.25	53.29	.000343	.000000686

System: methane + 1-(2-hydroxyethyl)-3-methylimidazolium bis(trifluoromethylsulfonyl)imide; phases: Liquid, Gas
Property: Mole fraction of methane (Liquid); method: Phase equilibration
Temperature, K	Pressure, kPa	Mole fraction of methane	uncertainty
300.05	50.39	.002614	.000005228
301.25	50.62	.002479	.000004958
303.95	51.13	.002215	.00000443
308.15	51.89	.002	.000004
313.15	52.86	.001415	.00000283
