Measured thermophysical data. Isobaric vapor-liquid equilibria for water + n-propanol + n-butanol ternary system at atmospheric pressure
Source: Fluid Phase Equilib., 2010, 10.1016/j.fluid.2010.06.004
Compound 1: water, H2O, purity 99.9%
Compound 2: propan-1-ol, C3H8O
Compound 3: butan-1-ol, C4H10O

System: propan-1-ol + butan-1-ol + water; phases: Liquid, Gas
Property: Mole fraction of propan-1-ol (Liquid); method: Chromatography
Property: Mole fraction of water (Gas); method: Chromatography
Property: Mole fraction of propan-1-ol (Gas); method: Chromatography
Temperature, K	Pressure, kPa	Mole fraction of water	Mole fraction of propan-1-ol	uncertainty	Mole fraction of water	uncertainty	Mole fraction of propan-1-ol	uncertainty
384.6	99.2	0	.2441	.001	0	.001	.3811	.001
383.95	99.2	.0106	.2424	.001	.0383	.001	.3682	.001
378.15	99.2	.0683	.2291	.001	.2808	.001	.3058	.001
374.15	99.2	.1306	.2157	.001	.436	.001	.242	.001
371.25	99.2	.1812	.2023	.001	.5468	.001	.1973	.001
369.15	99.2	.2364	.1885	.001	.5945	.001	.1725	.001
368.05	99.2	.2804	.1774	.001	.6236	.001	.1606	.001
367.05	99.2	.3241	.1669	.001	.6407	.001	.1382	.001
365.05	99.2	.4762	.1314	.001	.7147	.001	.1273	.001
381.9	99.2	0	.3592	.001	0	.001	.5369	.001
381.35	99.2	.0068	.3563	.001	.0343	.001	.5202	.001
377.15	99.2	.0555	.3398	.001	.2309	.001	.4207	.001
373.15	99.2	.1121	.3191	.001	.3935	.001	.3452	.001
370.55	99.2	.1676	.2987	.001	.5133	.001	.3	.001
368.55	99.2	.22	.2831	.001	.5808	.001	.2505	.001
367.25	99.2	.2631	.2659	.001	.6172	.001	.2201	.001
366.05	99.2	.316	.2462	.001	.6514	.001	.2066	.001
365.25	99.2	.3597	.2341	.001	.6605	.001	.2027	.001
364.45	99.2	.4185	.21	.001	.6727	.001	.1889	.001
363.95	99.2	.4809	.1835	.001	.6867	.001	.1733	.001
363.35	99.2	.562	.1497	.001	.7001	.001	.1696	.001
363.35	99.2	.7036	.1081	.001	.7056	.001	.1598	.001
379.3	99.2	0	.4697	.001	0	.001	.6559	.001
374.05	99.2	.0785	.4321	.001	.2837	.001	.4854	.001
370.65	99.2	.1407	.4017	.001	.4456	.001	.3973	.001
368.25	99.2	.2013	.3759	.001	.5317	.001	.3332	.001
367.05	99.2	.2433	.3558	.001	.5694	.001	.3014	.001
365.95	99.2	.2893	.3365	.001	.5822	.001	.2844	.001
365.15	99.2	.3295	.3165	.001	.6127	.001	.2725	.001
364.65	99.2	.3642	.3001	.001	.6391	.001	.258	.001
364.15	99.2	.399	.2844	.001	.6469	.001	.2504	.001
364.05	99.2	.4223	.2701	.001	.6522	.001	.2387	.001
377.1	99.2	0	.5728	.001	0	.001	.7525	.001
373.05	99.2	.0677	.5407	.001	.216	.001	.58	.001
369.35	99.2	.1405	.4988	.001	.39	.001	.4511	.001
367.25	99.2	.1972	.4598	.001	.4887	.001	.3823	.001
365.95	99.2	.2428	.4319	.001	.5342	.001	.3515	.001
364.95	99.2	.2873	.4066	.001	.5704	.001	.329	.001
364.15	99.2	.3311	.3827	.001	.5926	.001	.3122	.001
363.55	99.2	.373	.3598	.001	.6093	.001	.2943	.001
363.15	99.2	.4046	.3409	.001	.623	.001	.2846	.001
363.05	99.2	.4371	.3233	.001	.63	.001	.2811	.001
362.95	99.2	.4692	.3055	.001	.6371	.001	.2767	.001
375	99.2	0	.6735	.001	0	.001	.8264	.001
371.95	99.2	.0524	.6425	.001	.2185	.001	.6608	.001
369.45	99.2	.107	.6034	.001	.3612	.001	.5479	.001
367.25	99.2	.163	.5665	.001	.4581	.001	.4664	.001
365.95	99.2	.2126	.5315	.001	.5039	.001	.4251	.001
364.15	99.2	.3007	.473	.001	.547	.001	.3757	.001
363.15	99.2	.3818	.4158	.001	.5796	.001	.3431	.001
362.45	99.2	.4406	.36	.001	.6157	.001	.3169	.001
362.15	99.2	.5204	.2899	.001	.6341	.001	.2918	.001
362.15	99.2	.6904	.2106	.001	.6507	.001	.2767	.001
