Measured thermophysical data. Gaseous prhoTx properties for binary mixtures of HFO1234ze(E) + HC290
Source: Fluid Phase Equilib., 2016, 10.1016/j.fluid.2015.09.010
Compound 1: trans-1,3,3,3-tetrafluoropropene, C3H2F4, purity 99.5%
Compound 2: propane, C3H8, purity 99.9%

System: trans-1,3,3,3-tetrafluoropropene; phases: Gas
Property: Mass density, kg/m3 (Gas); method: single sinker densimeter
Temperature, K	Pressure, kPa	Mass density, kg/m3	uncertainty
293.157	408.92	21.5052	.01
293.162	302.68	15.3725	.012
293.16	210.6	10.407	.015
293.163	106.73	5.1257	.027
288.132	356.37	18.8808	.011
288.122	338.42	17.8195	.011
288.117	261.69	13.4297	.013
288.114	185.99	9.3221	.016
288.127	107.78	5.2812	.026
283.148	303.37	16.1704	.012
283.149	290.13	15.3909	.012
283.155	201.69	10.3769	.015
283.139	106.17	5.3014	.026
278.142	249.93	13.3894	.013
278.14	200.35	10.5385	.015
278.143	152.59	7.8948	.019
278.144	103.54	5.2727	.026
273.125	198.33	10.6692	.015
273.117	145.02	7.6483	.019
273.111	102.98	5.3503	.026
268.167	168.48	9.1497	.017
268.162	137.08	7.3536	.02
268.156	105.74	5.6056	.025
263.169	142.52	7.8479	.019
263.18	124.43	6.8014	.021
263.175	101.66	5.5042	.025

System: propane; phases: Gas
Property: Mass density, kg/m3 (Gas); method: single sinker densimeter
Temperature, K	Pressure, kPa	Mass density, kg/m3	uncertainty
293.099	803.62	17.2181	.011
293.125	340.88	6.5552	.022
293.116	106.57	1.9628	.068
288.219	653.34	13.8134	.013
288.208	538.6	11.0628	.015
288.21	421.87	8.433	.018
288.222	322.62	6.3129	.023
288.223	217.75	4.1713	.033
288.223	101.88	1.9105	.07
283.13	615.83	13.2515	.013
283.128	452.56	9.3303	.016
283.135	284.93	5.6533	.025
283.131	101.63	1.942	.068
278.14	542.76	11.76	.014
278.144	283.52	5.7427	.024
278.15	105.47	2.0544	.065
273.152	462.55	10.0438	.016
273.143	250.22	5.1361	.027
273.151	101.65	2.0177	.066
273.149	101.64	2.0179	.066
268.164	386.83	8.4369	.018
268.161	297.13	6.3169	.023
268.142	251.5	5.2792	.026
268.15	101.59	2.0567	.065
263.174	314.8	6.8907	.021
263.161	209.67	4.4546	.031
263.17	101.09	2.0885	.064
258.154	276.61	6.1388	.023
258.151	201.63	4.3743	.031
258.136	101.23	2.1368	.062

System: propane + trans-1,3,3,3-tetrafluoropropene; phases: Gas
Property: Mass density, kg/m3 (Gas); method: single sinker densimeter
Temperature, K	Pressure, kPa	Mole fraction of trans-1,3,3,3-tetrafluoropropene	Mass density, kg/m3	uncertainty
293.287	825.52	.168	22.5539	.01
293.288	715.58	.168	18.9724	.011
293.288	612.66	.168	15.8319	.012
293.291	515.52	.168	13.0247	.013
293.283	407.44	.168	10.0558	.016
293.281	290.55	.168	7.0037	.021
293.291	198.29	.168	4.6983	.029
293.294	100.13	.168	2.3324	.057
288.258	711.04	.168	19.385	.011
288.264	595.72	.168	15.7412	.012
288.272	445.46	.168	11.3478	.014
288.273	334.82	.168	8.3244	.018
288.271	213.38	.168	5.1751	.027
288.276	101.56	.168	2.4124	.055
283.193	612.31	.168	16.7013	.012
283.192	515.38	.168	13.6875	.013
283.19	411.95	.168	10.6601	.015
283.189	312.57	.168	7.9025	.019
283.186	198.03	.168	4.884	.028
283.187	100.44	.168	2.4312	.055
278.178	526.01	.168	14.3898	.012
278.185	401.11	.168	10.6025	.015
278.191	309.62	.168	7.9983	.019
278.193	207	.168	5.2225	.027
278.193	101.41	.168	2.5025	.053
273.156	451.06	.168	12.3973	.014
273.16	335.7	.168	8.9351	.017
273.18	209.57	.168	5.4023	.026
273.171	101.01	.168	2.541	.053
268.184	396.76	.168	11.0064	.015
268.179	248.05	.168	6.5968	.022
268.171	101.25	.168	2.5987	.051
263.202	326.36	.168	9.0877	.017
263.199	209.39	.168	5.6353	.025
263.2	100.13	.168	2.6195	.051
258.148	283.13	.168	7.9775	.019
258.146	196.38	.168	5.3883	.026
258.163	100.07	.168	2.6751	.05
293.254	709.61	.3426	23.0845	.01
293.253	588.13	.3426	18.534	.011
293.259	452.62	.3426	13.8135	.013
293.266	329.2	.3426	9.782	.016
293.265	208.73	.3426	6.0545	.023
293.274	101.3	.3426	2.8816	.047
288.252	689.73	.3426	22.9563	.01
288.254	583.57	.3426	18.8469	.011
288.253	452.7	.3426	14.1363	.013
288.247	344.87	.3426	10.4999	.015
288.236	229.6	.3426	6.8193	.021
288.244	101.08	.3426	2.9277	.046
283.177	580.09	.3426	19.2575	.011
283.174	449.59	.3426	14.3925	.012
283.161	338.25	.3426	10.53	.015
283.156	205.37	.3426	6.1995	.023
283.166	101.18	.3426	2.9879	.045
273.178	413.03	.3426	13.7671	.013
273.176	373.24	.3426	12.2939	.014
273.17	239.94	.3426	7.62	.019
273.167	100.67	.3426	3.0918	.044
263.192	283.01	.3426	9.5248	.016
263.197	200.66	.3426	6.5891	.022
263.194	101.37	.3426	3.2412	.042
258.178	242.52	.3426	8.2589	.018
258.159	161.36	.3426	5.3604	.026
258.147	100.61	.3426	3.2856	.041
278.163	417.17	.3431	13.5784	.013
278.173	309.55	.3431	9.7917	.016
278.187	198.9	.3431	6.1248	.023
278.191	100.62	.3431	3.0318	.044
268.158	332.62	.3431	11.1044	.015
268.161	332.61	.3431	11.1032	.015
268.172	201.77	.3431	6.4883	.022
268.19	101.5	.3431	3.1825	.042
293.297	641.29	.5076	24.1912	.01
293.29	530.45	.5076	19.4174	.011
293.287	429.96	.5076	15.3484	.012
293.293	317.13	.5076	11.031	.015
293.279	208.37	.5076	7.0836	.02
293.286	98.9	.5076	3.2914	.041
288.291	578.73	.5076	22.0366	.01
288.294	444.05	.5076	16.2865	.012
288.301	333.95	.5076	11.9154	.014
288.292	220.99	.5076	7.6809	.019
288.288	101.07	.5076	3.4268	.039
283.192	498.32	.5076	19.0511	.011
283.191	369.65	.5076	13.6268	.013
283.191	220.83	.5076	7.8406	.019
283.202	101.73	.5076	3.5184	.038
278.193	399.16	.5076	15.2118	.012
278.189	297.09	.5076	10.9954	.015
278.195	191.78	.5076	6.9037	.021
278.194	99.65	.5076	3.5099	.039
273.176	354.79	.5076	13.6621	.013
273.177	200.45	.5076	7.3826	.02
273.182	102.27	.5076	3.6758	.037
268.196	297.38	.5076	11.5325	.014
268.184	202.12	.5076	7.6182	.019
268.19	104.3	.5076	3.83	.035
263.215	228.28	.5076	8.8723	.017
263.221	168.02	.5076	6.4065	.022
263.223	100.69	.5076	3.7656	.036
293.319	546.41	.679	23.3906	.01
293.324	432.86	.679	17.9448	.011
293.309	324.6	.679	13.0914	.013
293.304	210.11	.679	8.2494	.018
293.31	101.19	.679	3.8833	.035
288.312	484.09	.679	20.8941	.011
288.309	348.56	.679	14.4714	.012
288.302	227.2	.679	9.1436	.017
288.303	101.4	.679	3.9663	.034
283.211	409.61	.679	17.7339	.011
283.203	307.97	.679	12.9389	.013
283.202	202.42	.679	8.2655	.018
283.204	100.73	.679	4.0148	.034
278.22	349.38	.679	15.2188	.012
278.209	223.89	.679	9.3939	.016
278.205	223.87	.679	9.3941	.016
278.209	100.47	.679	4.0836	.033
273.207	292.51	.679	12.8266	.013
273.2	206.18	.679	8.804	.017
273.2	100.65	.679	4.1755	.033
268.172	227.73	.679	9.9973	.016
268.166	164.37	.679	7.0737	.02
268.17	101.55	.679	4.2921	.032
293.342	454.67	.8949	22.4737	.01
293.347	345.6	.8949	16.5159	.012
293.347	226.08	.8949	10.452	.015
293.353	100.25	.8949	4.4951	.031
288.323	385.31	.8949	19.104	.011
288.336	236.83	.8949	11.2187	.014
288.339	101.12	.8949	4.6234	.03
283.231	328.84	.8949	16.4078	.012
283.232	209.78	.8949	10.0762	.016
283.244	102.25	.8949	4.7652	.029
278.207	278.18	.8949	13.9927	.013
278.213	170.26	.8949	8.2642	.018
278.207	100.48	.8949	4.7788	.029
