Measured thermophysical data. Measurement of phase equilibria data for the extraction of toluene from alkane using different solvents
Source: Fluid Phase Equilib., 2015, 10.1016/j.fluid.2015.06.016
Compound 1: decane, C10H22, purity 99%
Compound 2: toluene, C7H8, purity 99.8%
Compound 3: glycerol, C3H8O3, purity 99.5%
Compound 4: 2-hydroxyethylammonium formate, C3H9NO3, purity 98%
Compound 5: sulfolane, C4H8O2S, purity 99%

System: decane; phases: Liquid
Fixed: Pressure, kPa = 101.325
Property: Mass density, kg/m3 (Liquid); method: Vibrating tube method
Temperature, K	Mass density, kg/m3	uncertainty
303.15	722.439	.08

System: toluene; phases: Liquid
Fixed: Pressure, kPa = 101.325
Property: Mass density, kg/m3 (Liquid); method: Vibrating tube method
Temperature, K	Mass density, kg/m3	uncertainty
303.15	857.606	.08

System: glycerol; phases: Liquid
Fixed: Pressure, kPa = 101.325
Property: Mass density, kg/m3 (Liquid); method: Vibrating tube method
Temperature, K	Mass density, kg/m3	uncertainty
303.15	1257.128	.08

System: 2-hydroxyethylammonium formate; phases: Liquid
Fixed: Pressure, kPa = 101.325
Property: Mass density, kg/m3 (Liquid); method: Vibrating tube method
Temperature, K	Mass density, kg/m3	uncertainty
303.15	1184.462	.08

System: sulfolane; phases: Liquid
Fixed: Pressure, kPa = 101.325
Property: Mass density, kg/m3 (Liquid); method: Vibrating tube method
Temperature, K	Mass density, kg/m3	uncertainty
303.15	1265.751	.08

System: glycerol + toluene + decane; phases: Liquid mixture 1, Liquid mixture 2
Fixed: Pressure, kPa = 101
Property: Mass fraction of toluene (Liquid mixture 1); method: Titration method
Temperature, K	Mass fraction of decane	Mass fraction of toluene	uncertainty
303.15	.9972	0	.00008
303.15	.8222	.1713	.00008
303.15	.7332	.2597	.00008
303.15	.6176	.3741	.00008
303.15	.4869	.4948	.00008
303.15	.3678	.6098	.00008
303.15	.2407	.7279	.00008
303.15	.1281	.8548	.00008
303.15	.0039	0	.00008
303.15	.0032	.1108	.00008
303.15	.0071	.0455	.00008
303.15	.005	.1942	.00008
303.15	.0058	.2536	.00008
303.15	.0044	.3744	.00008
303.15	0	.9932	.00008
333.15	.9964	0	.00008
333.15	.95294	.0357	.00008
333.15	.90322	.0901	.00008
333.15	.8597	.1286	.00008
333.15	.8058	.1886	.00008
333.15	.7472	.2494	.00008
333.15	.694	.2984	.00008
333.15	.6362	.3454	.00008
333.15	.0028	0	.00008
333.15	.0034	.0391	.00008
333.15	.0031	.7191	.00008
333.15	.0047	.4981	.00008
333.15	.0079	.8557	.00008
333.15	.0054	.3984	.00008

System: glycerol + toluene + decane; phases: Liquid
Fixed: Pressure, kPa = 101
Property: Mass density, kg/m3 (Liquid); method: Vibrating tube method
Temperature, K	Mass fraction of decane	Mass fraction of toluene	Mass density, kg/m3	uncertainty
303.15	.9972	0	726.585	.08
303.15	.8222	.1713	741.591	.08
303.15	.7332	.2597	752.03	.08
303.15	.6176	.3741	766.628	.08
303.15	.4869	.4948	782.641	.08
303.15	.3678	.6098	799.365	.08
303.15	.2407	.7279	817.695	.08
303.15	.1281	.8548	835.904	.08
303.15	.0039	0	1254.174	.08
303.15	.0032	.1108	1251.089	.08
303.15	.0071	.0455	1242.805	.08
303.15	.005	.1942	1241.536	.08
303.15	.0058	.2536	1227.39	.08
303.15	.0044	.3744	1155.622	.08
303.15	0	.9932	857.606	.08
333.15	.9964	0	700.1	.08
333.15	.95294	.0357	703.7	.08
333.15	.90322	.0901	708.7	.08
333.15	.8597	.1286	712.8	.08
333.15	.8058	.1886	719.3	.08
333.15	.7472	.2494	725.8	.08
333.15	.694	.2984	731.2	.08
333.15	.6362	.3454	737.7	.08
333.15	.0028	0	1230.46	.08
333.15	.0034	.0391	1225.24	.08
333.15	.0031	.7191	828.62	.08
333.15	.0047	.4981	828.08	.08
333.15	.0079	.8557	827.94	.08
333.15	.0054	.3984	827.71	.08

System: glycerol + toluene + decane; phases: Liquid mixture 2, Liquid mixture 1
Fixed: Pressure, kPa = 101
Property: Mass fraction of decane (Liquid mixture 2); method: Density calibration data
Property: Mass fraction of decane (Liquid mixture 1); method: Density calibration data
Property: Mass fraction of toluene (Liquid mixture 1); method: Density calibration data
Temperature, K	Mass fraction of toluene	Mass fraction of decane	uncertainty	Mass fraction of decane	uncertainty	Mass fraction of toluene	uncertainty
303.15	.0203	.005	.001	.7368	.001	.2553	.001
333.15	.0084	.0021	.001	.6189	.001	.3689	.001
303.15	.0326	.0052	.001	.6579	.001	.3292	.001
303.15	.0445	.0188	.001	.5702	.001	.4126	.001
303.15	.0557	.0054	.001	.4592	.001	.5199	.001
333.15	.0069	.0022	.001	.9657	.001	.0277	.001
333.15	.0069	.0022	.001	.9249	.001	.0681	.001
333.15	.0069	.0022	.001	.8658	.001	.1266	.001
333.15	.0074	.0022	.001	.7994	.001	.192	.001
333.15	.0087	.0021	.001	.729	.001	.2612	.001

System: toluene + decane + 2-hydroxyethylammonium formate; phases: Liquid mixture 1, Liquid mixture 2
Fixed: Pressure, kPa = 101
Property: Mass fraction of toluene (Liquid mixture 1); method: Titration method
Temperature, K	Mass fraction of decane	Mass fraction of toluene	uncertainty
303.15	.9693	0	.00008
303.15	.8488	.133	.00008
303.15	.7422	.2501	.00008
303.15	.2468	.7345	.00008
303.15	.6181	.3664	.00008
303.15	.4817	.4947	.00008
303.15	.0398	0	.00008
303.15	.0052	.0704	.00008
303.15	.0152	.1247	.00008
303.15	.0067	.1307	.00008
303.15	.006	.2003	.00008
303.15	.0059	.2503	.00008
303.15	.0044	.3296	.00008
303.15	.0072	.6191	.00008
333.15	.9886	0	.00008
333.15	.8496	.0962	.00008
333.15	.8756	.1203	.00008
333.15	.7757	.1328	.00008
333.15	.7264	.2511	.00008
333.15	.6119	.3829	.00008
333.15	.4976	.4973	.00008
333.15	.3599	.6088	.00008
333.15	.0074	0	.00008
333.15	.0055	.0502	.00008
333.15	.0019	.254	.00008
333.15	.0221	.4903	.00008
333.15	.0017	.1059	.00008
333.15	.0029	.1902	.00008
333.15	.0029	.3984	.00008

System: toluene + decane + 2-hydroxyethylammonium formate; phases: Liquid
Fixed: Pressure, kPa = 101
Property: Mass density, kg/m3 (Liquid); method: Vibrating tube method
Temperature, K	Mass fraction of decane	Mass fraction of toluene	Mass density, kg/m3	uncertainty
303.15	.9693	0	722.46	.08
303.15	.8488	.133	737.81	.08
303.15	.7422	.2501	750.86	.08
303.15	.2468	.7345	750.88	.08
303.15	.6181	.3664	765.53	.08
303.15	.4817	.4947	783.02	.08
303.15	.0398	0	1170.73	.08
303.15	.0052	.0704	1131.4	.08
303.15	.0152	.1247	1118.53	.08
303.15	.0067	.1307	1098.27	.08
303.15	.006	.2003	1067.18	.08
303.15	.0059	.2503	1045.79	.08
303.15	.0044	.3296	1045.01	.08
303.15	.0072	.6191	855.95	.08
333.15	.9886	0	699.416	.08
333.15	.8496	.0962	710.017	.08
333.15	.8756	.1203	712.338	.08
333.15	.7757	.1328	714.792	.08
333.15	.7264	.2511	726.939	.08
333.15	.6119	.3829	741.845	.08
333.15	.4976	.4973	755.916	.08
333.15	.3599	.6088	772.496	.08
333.15	.0074	0	1171.518	.08
333.15	.0055	.0502	1163.201	.08
333.15	.0019	.254	1150.836	.08
333.15	.0221	.4903	1147.315	.08
333.15	.0017	.1059	1122.317	.08
333.15	.0029	.1902	1104.436	.08
333.15	.0029	.3984	1075.354	.08

System: toluene + decane + 2-hydroxyethylammonium formate; phases: Liquid mixture 1, Liquid mixture 2
Fixed: Pressure, kPa = 101
Property: Mass fraction of decane (Liquid mixture 1); method: Density calibration data
Property: Mass fraction of toluene (Liquid mixture 2); method: Density calibration data
Property: Mass fraction of decane (Liquid mixture 2); method: Density calibration data
Temperature, K	Mass fraction of toluene	Mass fraction of decane	uncertainty	Mass fraction of toluene	uncertainty	Mass fraction of decane	uncertainty
303.15	.209	.7762	.001	.0386	.001	.0184	.001
303.15	.5349	.4438	.001	.0453	.001	.0192	.001
333.15	.0801	.9104	.001	.0055	.001	.031	.001
333.15	.1563	.8324	.001	.01	.001	.0222	.001
333.15	.218	.7701	.001	.0139	.001	.0148	.001
333.15	.2754	.7125	.001	.0133	.001	.0159	.001
333.15	.3307	.6576	.001	.0128	.001	.0169	.001
303.15	.2623	.7224	.001	.0441	.001	.0191	.001
303.15	.3018	.6822	.001	.0394	.001	.0185	.001
303.15	.3756	.6071	.001	.0394	.001	.0185	.001
303.15	.4245	.5571	.001	.0398	.001	.0186	.001
303.15	.4676	.513	.001	.0451	.001	.0192	.001

System: toluene + decane + sulfolane; phases: Liquid mixture 1, Liquid mixture 2
Fixed: Pressure, kPa = 101
Property: Mass fraction of toluene (Liquid mixture 1); method: Titration method
Temperature, K	Mass fraction of decane	Mass fraction of toluene	uncertainty
303.15	.9696	0	.00008
303.15	.8516	.1283	.00008
303.15	.7228	.2497	.00008
303.15	.5882	.3629	.00008
303.15	.4722	.4796	.00008
303.15	.3483	.5662	.00008
303.15	.2095	.6173	.00008
303.15	.015	0	.00008
303.15	.0228	.1333	.00008
303.15	.0236	.2482	.00008
303.15	.031	.3639	.00008
303.15	.0677	.4671	.00008
303.15	.0516	.5071	.00008
333.15	.9914	0	.00008
333.15	.8804	.112	.00008
333.15	.7816	.2066	.00008
333.15	.6902	.2605	.00008
333.15	.6019	.3015	.00008
333.15	.5553	.333	.00008
333.15	.3284	.5569	.00008
333.15	.3384	.5456	.00008
333.15	.0154	0	.00008
333.15	.0244	.0906	.00008
333.15	.0203	.1706	.00008
333.15	.021	.2313	.00008
333.15	.0336	.2797	.00008
333.15	.0345	.3089	.00008
333.15	.0603	.3929	.00008
333.15	.0946	.4616	.00008

System: toluene + decane + sulfolane; phases: Liquid
Fixed: Pressure, kPa = 101
Property: Mass density, kg/m3 (Liquid); method: Vibrating tube method
Temperature, K	Mass fraction of decane	Mass fraction of toluene	Mass density, kg/m3	uncertainty
303.15	.9696	0	723.375	.08
303.15	.8516	.1283	738.188	.08
303.15	.7228	.2497	754.379	.08
303.15	.5882	.3629	778.14	.08
303.15	.4722	.4796	795.209	.08
303.15	.3483	.5662	824.719	.08
303.15	.2095	.6173	865.64	.08
303.15	.015	0	1255.21	.08
303.15	.0228	.1333	1181.13	.08
303.15	.0236	.2482	1122.323	.08
303.15	.031	.3639	1066.908	.08
303.15	.0677	.4671	1011.712	.08
303.15	.0516	.5071	1010.779	.08
333.15	.9914	0	700.327	.08
333.15	.8804	.112	712.709	.08
333.15	.7816	.2066	723.786	.08
333.15	.6902	.2605	736.841	.08
333.15	.6019	.3015	741.44	.08
333.15	.5553	.333	745.009	.08
333.15	.3284	.5569	809.068	.08
333.15	.3384	.5456	809.248	.08
333.15	.0154	0	1227.867	.08
333.15	.0244	.0906	1180.065	.08
333.15	.0203	.1706	1139.098	.08
333.15	.021	.2313	1104.473	.08
333.15	.0336	.2797	1078.96	.08
333.15	.0345	.3089	1063.217	.08
333.15	.0603	.3929	1021.101	.08
333.15	.0946	.4616	971.79	.08

System: toluene + decane + sulfolane; phases: Liquid mixture 2, Liquid mixture 1
Fixed: Pressure, kPa = 101
Property: Mass fraction of decane (Liquid mixture 2); method: Density calibration data
Property: Mass fraction of decane (Liquid mixture 1); method: Density calibration data
Property: Mass fraction of toluene (Liquid mixture 1); method: Density calibration data
Temperature, K	Mass fraction of toluene	Mass fraction of decane	uncertainty	Mass fraction of decane	uncertainty	Mass fraction of toluene	uncertainty
303.15	.0222	.0161	.001	.8959	.001	.0975	.001
333.15	.1217	.0163	.001	.6885	.001	.2773	.001
303.15	.0563	.0169	.001	.8059	.001	.1929	.001
303.15	.0742	.0174	.001	.7609	.001	.2328	.001
303.15	.0966	.0182	.001	.7119	.001	.2737	.001
303.15	.1315	.0195	.001	.6455	.001	.3265	.001
333.15	.0349	.0175	.001	.8803	.001	.1149	.001
333.15	.0589	.0165	.001	.8205	.001	.1678	.001
333.15	.0794	.0161	.001	.7703	.001	.2103	.001
333.15	.0996	.0159	.001	.7153	.001	.2556	.001
