Measured thermophysical data. Liquid liquid equilibria for ternary systems ethanol + heptane + phosphoric-based ionic liquids
Source: Fluid Phase Equilib., 2015, 10.1016/j.fluid.2014.12.007
Compound 1: ethanol, C2H6O, purity 99.7%
Compound 2: heptane, C7H16, purity 99%
Compound 3: 1,3-dimethylimidazolium dimethylphosphate, C7H15N2O4P, purity 98%
Compound 4: 1-ethyl-3-methylimidazolium diethylphosphate, C10H21N2O4P, purity 98%
Compound 5: 1-butyl-3-methylimidazolium dibutylphosphate, C16H33N2O4P, purity 98%

System: ethanol + heptane + 1,3-dimethylimidazolium dimethylphosphate; phases: Liquid mixture 1, Liquid mixture 2
Property: Mole fraction of heptane (Liquid mixture 1); method: Chromatography
Property: Mole fraction of ethanol (Liquid mixture 2); method: Chromatography
Property: Mole fraction of heptane (Liquid mixture 2); method: Chromatography
Temperature, K	Pressure, kPa	Mole fraction of ethanol	Mole fraction of heptane	uncertainty	Mole fraction of ethanol	uncertainty	Mole fraction of heptane	uncertainty
298.2	101.3	0	1	.001	0	.001	.006	.001
298.2	101.3	.007	.993	.001	.185	.001	.009	.001
298.2	101.3	.018	.982	.001	.359	.001	.012	.001
298.2	101.3	.031	.969	.001	.486	.001	.015	.001
298.2	101.3	.044	.956	.001	.547	.001	.021	.001
298.2	101.3	.058	.942	.001	.584	.001	.03	.001
298.2	101.3	.075	.925	.001	.636	.001	.039	.001
298.2	101.3	.091	.909	.001	.71	.001	.044	.001
298.2	101.3	.106	.894	.001	.754	.001	.063	.001

System: ethanol + heptane + 1-ethyl-3-methylimidazolium diethylphosphate; phases: Liquid mixture 1, Liquid mixture 2
Property: Mole fraction of heptane (Liquid mixture 1); method: Chromatography
Property: Mole fraction of ethanol (Liquid mixture 2); method: Chromatography
Property: Mole fraction of heptane (Liquid mixture 2); method: Chromatography
Temperature, K	Pressure, kPa	Mole fraction of ethanol	Mole fraction of heptane	uncertainty	Mole fraction of ethanol	uncertainty	Mole fraction of heptane	uncertainty
298.2	101.3	0	1	.001	0	.001	.009	.001
298.2	101.3	.01	.99	.001	.167	.001	.014	.001
298.2	101.3	.016	.984	.001	.223	.001	.017	.001
298.2	101.3	.028	.972	.001	.314	.001	.024	.001
298.2	101.3	.044	.956	.001	.408	.001	.035	.001
298.2	101.3	.064	.936	.001	.485	.001	.053	.001
298.2	101.3	.087	.913	.001	.542	.001	.068	.001
298.2	101.3	.106	.894	.001	.604	.001	.087	.001
298.2	101.3	.129	.871	.001	.676	.001	.099	.001

System: ethanol + heptane + 1-butyl-3-methylimidazolium dibutylphosphate; phases: Liquid mixture 1, Liquid mixture 2
Property: Mole fraction of heptane (Liquid mixture 1); method: Chromatography
Property: Mole fraction of ethanol (Liquid mixture 2); method: Chromatography
Property: Mole fraction of heptane (Liquid mixture 2); method: Chromatography
Temperature, K	Pressure, kPa	Mole fraction of ethanol	Mole fraction of heptane	uncertainty	Mole fraction of ethanol	uncertainty	Mole fraction of heptane	uncertainty
298.2	101.3	0	1	.001	0	.001	.025	.001
298.2	101.3	.013	.987	.001	.148	.001	.033	.001
298.2	101.3	.021	.979	.001	.186	.001	.048	.001
298.2	101.3	.034	.966	.001	.242	.001	.059	.001
298.2	101.3	.049	.951	.001	.296	.001	.067	.001
298.2	101.3	.075	.925	.001	.357	.001	.085	.001
298.2	101.3	.092	.908	.001	.411	.001	.103	.001
298.2	101.3	.111	.889	.001	.463	.001	.11	.001
298.2	101.3	.136	.864	.001	.536	.001	.134	.001

System: heptane + 1,3-dimethylimidazolium dimethylphosphate; phases: Liquid mixture 2, Liquid mixture 1
Property: Mole fraction of heptane (Liquid mixture 2); method: Chromatography
Temperature, K	Pressure, kPa	Mole fraction of heptane	uncertainty
298.2	101.3	.006	.001

System: heptane + 1-ethyl-3-methylimidazolium diethylphosphate; phases: Liquid mixture 2, Liquid mixture 1
Property: Mole fraction of heptane (Liquid mixture 2); method: Chromatography
Temperature, K	Pressure, kPa	Mole fraction of heptane	uncertainty
298.2	101.3	.009	.001

System: heptane + 1-butyl-3-methylimidazolium dibutylphosphate; phases: Liquid mixture 2, Liquid mixture 1
Property: Mole fraction of heptane (Liquid mixture 2); method: Chromatography
Temperature, K	Pressure, kPa	Mole fraction of heptane	uncertainty
298.2	101.3	.025	.001
