Measured thermophysical data. Thermophysical properties of 1-butyl-3-methylimidazolium acetate over a wide range of temperatures and pressures
Source: Fluid Phase Equilib., 2014, 10.1016/j.fluid.2014.10.015
Compound 1: 1-butyl-3-methylimidazolium acetate, C10H18N2O2, purity 95%

System: 1-butyl-3-methylimidazolium acetate; phases: Liquid
Property: Mass density, kg/m3 (Liquid); method: Vibrating tube method
Pressure, kPa	Temperature, K	Mass density, kg/m3	uncertainty
101	273.15	1068.3	.85464
238	273.15	1068.35	.85468
5002	273.15	1070.1	.85608
10020	273.15	1071.93	.857544
19968	273.15	1075.5	.8604
29945	273.15	1079.01	.863208
40001	273.15	1082.46	.865968
49987	273.15	1085.81	.868648
59935	273.15	1089.07	.871256
69985	273.15	1092.29	.873832
79928	273.15	1095.39	.876312
90040	273.15	1098.47	.878776
99956	273.15	1101.42	.881136
109260	273.15	1104.11	.883288
119925	273.15	1107.11	.885688
129945	273.15	1109.85	.88788
139956	273.15	1112.52	.890016
101	283.15	1061.93	.849544
747	283.12	1062.18	.849744
5103	283.13	1063.85	.85108
9902	283.16	1065.67	.852536
19845	283.17	1069.38	.855504
29987	283.16	1073.08	.858464
39574	283.16	1076.5	.8612
50021	283.16	1080.12	.864096
59694	283.15	1083.4	.86672
70000	283.15	1086.8	.86944
79404	283.15	1089.83	.871864
90034	283.15	1093.15	.87452
98553	283.15	1095.75	.8766
109979	283.15	1099.13	.879304
120352	283.15	1102.1	.88168
129998	283.15	1104.78	.883824
139706	283.15	1107.39	.885912
101	293.15	1055.7	.84456
928	293.15	1056.02	.844816
4731	293.16	1057.51	.846008
10042	293.15	1059.57	.847656
19892	293.14	1063.32	.850656
29991	293.15	1067.08	.853664
39318	293.16	1070.48	.856384
50024	293.15	1074.3	.85944
59451	293.15	1077.57	.862056
70011	293.15	1081.16	.864928
79858	293.15	1084.42	.867536
89975	293.14	1087.68	.870144
99228	293.13	1090.59	.872472
110000	293.13	1093.89	.875112
120552	293.13	1097.03	.877624
130029	293.13	1099.77	.879816
139794	293.13	1102.51	.882008
101	298.15	1052.59	.842072
1002	298.15	1052.95	.84236
5001	298.16	1054.55	.84364
10002	298.15	1056.52	.845216
19965	298.14	1060.4	.84832
29947	298.15	1064.19	.851352
39934	298.16	1067.89	.854312
49953	298.15	1071.51	.857208
59928	298.14	1075.03	.860024
70002	298.15	1078.49	.862792
80006	298.16	1081.84	.865472
89954	298.15	1085.08	.868064
99359	298.16	1088.06	.870448
109924	298.15	1091.31	.873048
119989	298.13	1094.32	.875456
129954	298.15	1097.2	.87776
139957	298.15	1100.01	.880008
101	313.15	1043.35	.83468
1226	313.18	1043.82	.835056
5238	313.17	1045.49	.836392
10222	313.16	1047.54	.838032
20418	313.13	1051.65	.84132
30021	313.13	1055.44	.844352
39510	313.13	1059.09	.847272
50039	313.13	1063.04	.850432
59562	313.14	1066.53	.853224
70013	313.15	1070.25	.8562
79427	313.16	1073.52	.858816
89989	313.16	1077.08	.861664
98994	313.16	1080.03	.864024
109981	313.16	1083.53	.866824
119744	313.15	1086.54	.869232
129979	313.15	1089.6	.87168
139775	313.14	1092.44	.873952
101	333.15	1031.21	.824968
628	333.15	1031.45	.82516
4971	333.15	1033.37	.826696
9567	333.14	1035.37	.828296
20116	333.15	1039.9	.83192
29979	333.15	1044.01	.835208
39561	333.16	1047.91	.838328
49981	333.15	1052.04	.841632
59681	333.15	1055.77	.844616
70024	333.15	1059.64	.847712
79610	333.15	1063.12	.850496
89976	333.16	1066.77	.853416
99080	333.17	1069.88	.855904
109991	333.17	1073.48	.858784
120185	333.17	1076.74	.861392
129974	333.17	1079.75	.8638
139981	333.17	1082.73	.866184
101	353.15	1019.28	.815424
1410	353.12	1019.9	.81592
4959	353.14	1021.56	.817248
9951	353.16	1023.86	.819088
20183	353.17	1028.49	.822792
29998	353.17	1032.8	.82624
39534	353.18	1036.88	.829504
49992	353.16	1041.22	.832976
60022	353.15	1045.25	.8362
70021	353.15	1049.15	.83932
80038	353.15	1052.92	.842336
90002	353.15	1056.56	.845248
99015	353.14	1059.73	.847784
109983	353.14	1063.46	.850768
120068	353.13	1066.76	.853408
130015	353.13	1069.89	.855912
139714	353.12	1072.82	.858256
101	373.15	1007.58	.806064
2297	373.17	1008.66	.806928
4871	373.16	1009.91	.807928
9977	373.15	1012.37	.809896
19875	373.14	1017.03	.813624
29995	373.16	1021.67	.817336
39711	373.17	1025.99	.820792
49968	373.16	1030.42	.824336
59224	373.16	1034.29	.827432
69994	373.17	1038.66	.830928
79589	373.18	1042.42	.833936
90022	373.16	1046.37	.837096
99180	373.15	1049.72	.839776
110012	373.15	1053.53	.842824
120856	373.15	1057.2	.84576
129989	373.15	1060.16	.848128
139805	373.14	1063.23	.850584
101	393.15	996.11	.796888
3086	393.15	997.63	.798104
5180	393.13	998.69	.798952
10081	393.15	1001.16	.800928
20117	393.15	1006.09	.804872
30011	393.15	1010.81	.808648
40130	393.15	1015.49	.812392
49985	393.15	1019.89	.815912
60153	393.14	1024.29	.819432
69980	393.14	1028.4	.82272
80125	393.14	1032.49	.825992
90011	393.15	1036.33	.829064
99789	393.16	1039.98	.831984
109214	393.15	1043.37	.834696
120002	393.14	1047.09	.837672
130005	393.15	1050.39	.840312
139958	393.16	1053.52	.842816
101	413.15	984.86	.787888
2006	413.12	985.88	.788704
5092	413.12	987.51	.790008
10624	413.16	990.4	.79232
20186	413.13	995.28	.796224
30014	413.14	1000.15	.80012
40204	413.14	1005.02	.804016
49979	413.14	1009.54	.807632
60179	413.14	1014.09	.811272
70022	413.14	1018.33	.814664
79800	413.15	1022.54	.818032
90200	413.15	1026.45	.82116
99791	413.14	1030.18	.824144
109956	413.15	1033.9	.82712
119957	413.14	1037.4	.82992
129954	413.15	1040.74	.832592
139956	413.14	1043.92	.835136

System: 1-butyl-3-methylimidazolium acetate; phases: Liquid
Fixed: Pressure, kPa = 101.325
Property: Mass density, kg/m3 (Liquid); method: Vibrating tube method
Temperature, K	Mass density, kg/m3	uncertainty
273.15	1068.29	.05
278.17	1065.11	.05
283.17	1061.96	.05
293.15	1055.7	.05
298.15	1052.59	.05
313.13	1043.35	.05
333.13	1031.21	.05
343.16	1025.2	.05
353.15	1019.28	.05

System: 1-butyl-3-methylimidazolium acetate; phases: Liquid
Fixed: Pressure, kPa = 101.325
Property: Viscosity, Pa*s (Liquid); method: Concentric cylinders viscometry
Temperature, K	Viscosity, Pa*s	uncertainty
278.148	3.1575	.031575
283.149	1.8183	.018183
293.15	.6895	.006895
298.149	.4475	.004475
313.149	.155	.00155
333.149	.0535	.000535
353.15	.0244	.000244
373.15	.0138	.000138

System: 1-butyl-3-methylimidazolium acetate; phases: Liquid
Fixed: Pressure, kPa = 101.325
Property: Molar heat capacity at constant pressure, J/K/mol (Liquid); method: Small sample (50 mg) scanning calorimetry
Temperature, K	Molar heat capacity at constant pressure, J/K/mol	uncertainty
253.15	359.544534456	10.78633603368
258.15	361.572756762	10.84718270286
263.15	363.69217968	10.9107653904
268.15	365.904785832	10.97714357496
273.15	368.208592596	11.04625777788
278.15	370.607565216	11.11822695648
283.15	373.097738448	11.19293215344
293.15	378.355651992	11.35066955976
298.15	381.123392304	11.43370176912
303.15	383.98431585	11.5195294755
313.15	389.9817474	11.699452422
323.15	396.349929264	11.89049787792
333.15	403.088861442	12.09266584326
343.15	410.198543934	12.30595631802
353.15	417.676994118	12.53030982354
363.15	425.528177238	12.76584531714
373.15	433.74812805	13.0124438415
383.15	442.336846554	13.27010539662
393.15	451.298297994	13.53894893982
403.15	460.628517126	13.81885551378
413.15	470.32750395	14.1098251185

System: 1-butyl-3-methylimidazolium acetate; phases: Liquid, Gas
Property: Surface tension liquid-gas, N/m (Liquid); method: Pendant drop shape
Temperature, K	Surface tension liquid-gas, N/m	uncertainty
293.2	.03787	.0005
298.2	.03761	.0005
303.2	.03736	.0005
308.2	.03711	.0005
313.2	.03688	.0005
318.2	.03663	.0005
323.2	.03642	.0005
328.2	.0362	.0005
