Measured thermophysical data. Measurement and prediction of phase equilibria of ethylene + vinyl acetate + methanol + poly(ethylene-co-vinyl acetate) systems
Source: Fluid Phase Equilib., 2016, 10.1016/j.fluid.2016.08.037
Compound 1: ethylene, C2H4
Compound 2: methanol, CH4O, purity 99.8%

System: methanol + ethylene; phases: Gas, Liquid
Property: Vapor or sublimation pressure, kPa (Gas); method: Closed cell (Static) method
Temperature, K	Mole fraction of ethylene	Vapor or sublimation pressure, kPa	uncertainty
313.18	.0593	1710	
313.18	.0926	2700	
313.18	.1235	3410	
313.18	.1455	4000	
313.18	.1568	4360	
313.18	.2122	5350	
313.18	.2219	5500	
313.18	.2267	5510	
313.18	.2523	6050	
313.18	.2855	6860	
313.18	.3027	6910	
313.18	.3415	7760	
343.16	.0593	2360	
343.16	.0926	3660	
343.16	.1235	4680	
343.16	.1455	5450	
343.16	.1568	5930	
343.16	.2122	7350	
343.16	.2219	7650	
343.16	.2267	7720	
343.16	.2523	8520	
343.16	.2855	9560	
343.16	.3027	9770	
343.16	.3415	10920	
373.14	.0593	3070	
373.14	.0926	4650	
373.14	.1235	5930	
373.14	.1455	6840	
373.14	.1568	7390	
373.14	.2122	9070	
373.14	.2219	9380	
373.14	.2267	9540	
373.14	.2523	10490	
373.14	.2855	11600	
373.14	.3027	11900	
373.14	.3415	13100	
