Measured thermophysical data. Experimental measurements of vapor liquid equilibria at low pressure: Systems  containing alcohols, esters and organic acids
Source: Fluid Phase Equilib., 2010, 10.1016/j.fluid.2009.10.002
Compound 1: methanol, CH4O
Compound 2: ethanoic acid, C2H4O2
Compound 3: methyl ethanoate, C3H6O2
Compound 4: water, H2O, purity 99.9%
Compound 5: ethyl ethanoate, C4H8O2
Compound 6: ethanol, C2H6O

System: ethanoic acid + methanol; phases: Liquid, Gas
Fixed: Pressure, kPa = 77.3
Property: Boiling temperature at pressure P, K (Liquid); method: Ebulliometric method (Recirculating still)
Mole fraction of methanol	Boiling temperature at pressure P, K	uncertainty
.181	365.75	.05
.225	361.95	.05
.552	346.45	.05
.647	343.35	.05
.767	339.25	.05

System: ethanoic acid + methanol; phases: Liquid, Gas
Fixed: Pressure, kPa = 77.3
Property: Boiling temperature at pressure P, K (Liquid); method: Ebulliometric method (Recirculating still)
Mole fraction of methanol	Boiling temperature at pressure P, K	uncertainty
.383	365.75	.05
.507	361.95	.05
.841	346.45	.05
.879	343.35	.05
.943	339.25	.05

System: methanol + methyl ethanoate; phases: Liquid, Gas
Fixed: Pressure, kPa = 77.3
Property: Boiling temperature at pressure P, K (Liquid); method: Ebulliometric method (Recirculating still)
Mole fraction of methanol	Boiling temperature at pressure P, K	uncertainty
.187	320.35	.05
.261	320.15	.05
.418	320.25	.05
.743	322.85	.05
.852	325.65	.05

System: methanol + methyl ethanoate; phases: Liquid, Gas
Fixed: Pressure, kPa = 77.3
Property: Boiling temperature at pressure P, K (Liquid); method: Ebulliometric method (Recirculating still)
Mole fraction of methanol	Boiling temperature at pressure P, K	uncertainty
.187	320.35	.05
.261	320.15	.05
.418	320.25	.05
.743	322.85	.05
.852	325.65	.05

System: methanol + water; phases: Liquid, Gas
Fixed: Pressure, kPa = 77.3
Property: Boiling temperature at pressure P, K (Liquid); method: Ebulliometric method (Recirculating still)
Mole fraction of methanol	Boiling temperature at pressure P, K	uncertainty
.062	357.35	.05
.149	352.15	.05
.155	351.35	.05
.53	340.95	.05
.781	335.55	.05

System: methanol + water; phases: Liquid, Gas
Fixed: Pressure, kPa = 77.3
Property: Boiling temperature at pressure P, K (Liquid); method: Ebulliometric method (Recirculating still)
Mole fraction of methanol	Boiling temperature at pressure P, K	uncertainty
.265	357.35	.05
.566	352.15	.05
.595	351.35	.05
.839	340.95	.05
.895	335.55	.05

System: ethanoic acid + methyl ethanoate; phases: Liquid, Gas
Fixed: Pressure, kPa = 77.3
Property: Boiling temperature at pressure P, K (Liquid); method: Ebulliometric method (Recirculating still)
Mole fraction of methyl ethanoate	Boiling temperature at pressure P, K	uncertainty
.183	360.85	.05
.279	353.85	.05
.565	335.65	.05
.493	336.95	.05
.743	327.85	.05

System: ethanoic acid + methyl ethanoate; phases: Liquid, Gas
Fixed: Pressure, kPa = 77.3
Property: Boiling temperature at pressure P, K (Liquid); method: Ebulliometric method (Recirculating still)
Mole fraction of methyl ethanoate	Boiling temperature at pressure P, K	uncertainty
.538	360.85	.05
.743	353.85	.05
.939	335.65	.05
.873	336.95	.05
.987	327.85	.05

System: ethanoic acid + water; phases: Liquid, Gas
Fixed: Pressure, kPa = 77.3
Property: Boiling temperature at pressure P, K (Liquid); method: Ebulliometric method (Recirculating still)
Mole fraction of water	Boiling temperature at pressure P, K	uncertainty
.346	370.05	.05
.482	369.45	.05
.621	367.95	.05
.774	366.95	.05
.871	366.55	.05

System: ethanoic acid + water; phases: Liquid, Gas
Fixed: Pressure, kPa = 77.3
Property: Boiling temperature at pressure P, K (Liquid); method: Ebulliometric method (Recirculating still)
Mole fraction of water	Boiling temperature at pressure P, K	uncertainty
.47	370.05	.05
.631	369.45	.05
.719	367.95	.05
.839	366.95	.05
.895	366.55	.05

System: ethanoic acid + ethyl ethanoate; phases: Liquid, Gas
Fixed: Pressure, kPa = 77.3
Property: Boiling temperature at pressure P, K (Liquid); method: Ebulliometric method (Recirculating still)
Mole fraction of ethyl ethanoate	Boiling temperature at pressure P, K	uncertainty
.103	375.25	.05
.222	368.85	.05
.377	360.75	.05
.546	352.95	.05
.709	347.75	.05

System: ethanoic acid + ethyl ethanoate; phases: Liquid, Gas
Fixed: Pressure, kPa = 77.3
Property: Boiling temperature at pressure P, K (Liquid); method: Ebulliometric method (Recirculating still)
Mole fraction of ethyl ethanoate	Boiling temperature at pressure P, K	uncertainty
.279	375.25	.05
.452	368.85	.05
.683	360.75	.05
.829	352.95	.05
.901	347.75	.05

System: ethanol + ethanoic acid; phases: Liquid, Gas
Fixed: Pressure, kPa = 77.3
Property: Boiling temperature at pressure P, K (Liquid); method: Ebulliometric method (Recirculating still)
Mole fraction of ethanol	Boiling temperature at pressure P, K	uncertainty
.382	370.65	.05
.564	364.95	.05
.845	356.45	.05
.913	352.05	.05
.981	348.85	.05

System: ethanol + ethanoic acid; phases: Liquid, Gas
Fixed: Pressure, kPa = 77.3
Property: Boiling temperature at pressure P, K (Liquid); method: Ebulliometric method (Recirculating still)
Mole fraction of ethanol	Boiling temperature at pressure P, K	uncertainty
.19	370.65	.05
.329	364.95	.05
.615	356.45	.05
.744	352.05	.05
.796	348.85	.05

System: ethanol + ethyl ethanoate; phases: Liquid, Gas
Fixed: Pressure, kPa = 77.3
Property: Boiling temperature at pressure P, K (Liquid); method: Ebulliometric method (Recirculating still)
Mole fraction of ethanol	Boiling temperature at pressure P, K	uncertainty
.187	338.85	.05
.258	337.75	.05
.361	337.25	.05
.605	337.45	.05
.804	338.95	.05

System: ethanol + ethyl ethanoate; phases: Liquid, Gas
Fixed: Pressure, kPa = 77.3
Property: Boiling temperature at pressure P, K (Liquid); method: Ebulliometric method (Recirculating still)
Mole fraction of ethanol	Boiling temperature at pressure P, K	uncertainty
.285	338.85	.05
.334	337.75	.05
.421	337.25	.05
.524	337.45	.05
.677	338.95	.05

System: ethanol + water; phases: Liquid, Gas
Fixed: Pressure, kPa = 77.3
Property: Boiling temperature at pressure P, K (Liquid); method: Ebulliometric method (Recirculating still)
Mole fraction of ethanol	Boiling temperature at pressure P, K	uncertainty
.281	348.85	.05
.356	347.75	.05
.474	346.55	.05
.62	345.85	.05
.763	344.95	.05

System: ethanol + water; phases: Liquid, Gas
Fixed: Pressure, kPa = 77.3
Property: Boiling temperature at pressure P, K (Liquid); method: Ebulliometric method (Recirculating still)
Mole fraction of ethanol	Boiling temperature at pressure P, K	uncertainty
.541	348.85	.05
.579	347.75	.05
.629	346.55	.05
.705	345.85	.05
.798	344.95	.05
