Measured thermophysical data. Vapour-liquid equilibrium (VLE) for the systems furan + n-hexane and furan + toluene. Measurements, data treatment and modeling using molecular models
Source: Fluid Phase Equilib., 2013, 10.1016/j.fluid.2012.08.005
Compound 1: n-hexane, C6H14, purity 99%
Compound 2: phenylmethane, C7H8, purity 99.85%
Compound 3: tetrole, C4H4O, purity 99%

System: tetrole + n-hexane; phases: Liquid
Fixed: Pressure, kPa = 101
Property: Mass density, kg/m3 (Liquid); method: Vibrating tube method
Temperature, K	Mole fraction of tetrole	Mass density, kg/m3	uncertainty
293.15	0	660.8	.01
293.15	.12	677.8	.01
293.15	.199	690.2	.01
293.15	.365	721.4	.01
293.15	.511	755.2	.01
293.15	.623	786.2	.01
293.15	.786	841.2	.01
293.15	.908	891.9	.01
293.15	1	939.8	.01
298.15	0	657	.01
298.15	.12	673.9	.01
298.15	.199	686.1	.01
298.15	.365	717	.01
298.15	.511	750.5	.01
298.15	.623	781.4	.01
298.15	.786	835.9	.01
298.15	.908	886.4	.01
298.15	1	934	.01
303.15	0	653.3	.01
303.15	.12	670	.01
303.15	.199	682.2	.01
303.15	.365	712.8	.01
303.15	.511	746	.01
303.15	.623	776.6	.01
303.15	.786	830.8	.01
303.15	.908	881	.01
303.15	1	928.3	.01

System: tetrole + n-hexane; phases: Liquid, Gas
Property: Boiling temperature at pressure P, K (Liquid); method: Ebulliometric method (Recirculating still)
Mole fraction of tetrole	Pressure, kPa	Boiling temperature at pressure P, K	uncertainty
.028	101.325	338.43	.01
.049	101.325	335.98	.01
.078	101.325	332.85	.01
.117	101.325	329.37	.01
.172	101.325	325.05	.01
.267	101.325	319.59	.01
.349	101.325	316.37	.01
.424	101.325	313.94	.01
.493	101.325	311.81	.01
.567	101.325	310.26	.01
.639	101.325	309.06	.01
.715	101.325	307.66	.01
.813	101.325	306.26	.01
.856	101.325	305.69	.01
.905	101.325	305.36	.01
.968	101.325	304.94	.01
.991	101.325	304.72	.01

System: tetrole + n-hexane; phases: Gas, Liquid
Property: Mole fraction of tetrole (Gas); method: Density calibration data
Mole fraction of tetrole	Pressure, kPa	Mole fraction of tetrole	uncertainty
.028	101.325	.121	.007
.049	101.325	.206	.007
.078	101.325	.304	.007
.117	101.325	.408	.007
.172	101.325	.52	.007
.267	101.325	.646	.007
.349	101.325	.719	.007
.424	101.325	.759	.007
.493	101.325	.798	.007
.567	101.325	.828	.007
.639	101.325	.847	.007
.715	101.325	.874	.007
.813	101.325	.908	.007
.856	101.325	.924	.007
.905	101.325	.939	.007
.968	101.325	.978	.007
.991	101.325	.992	.007

System: phenylmethane + tetrole; phases: Liquid
Fixed: Pressure, kPa = 101
Property: Mass density, kg/m3 (Liquid); method: Vibrating tube method
Temperature, K	Mole fraction of tetrole	Mass density, kg/m3	uncertainty
293.15	0	868.2	.01
293.15	.1	873.3	.01
293.15	.199	878.9	.01
293.15	.387	889.8	.01
293.15	.507	897.7	.01
293.15	.591	903.8	.01
293.15	.761	917.5	.01
293.15	.89	929.2	.01
293.15	1	939.8	.01
298.15	0	864.5	.01
298.15	.1	869.5	.01
298.15	.199	875	.01
298.15	.387	885.6	.01
298.15	.507	893.2	.01
298.15	.591	899.1	.01
298.15	.761	912.4	.01
298.15	.89	923.7	.01
298.15	1	934	.01
303.15	0	861	.01
303.15	.1	865.9	.01
303.15	.199	871.2	.01
303.15	.387	881.5	.01
303.15	.507	888.9	.01
303.15	.591	894.6	.01
303.15	.761	907.5	.01
303.15	.89	918.4	.01
303.15	1	928.3	.01

System: phenylmethane + tetrole; phases: Liquid, Gas
Property: Boiling temperature at pressure P, K (Liquid); method: Ebulliometric method (Recirculating still)
Mole fraction of tetrole	Pressure, kPa	Boiling temperature at pressure P, K	uncertainty
.995	101.325	305	.01
.958	101.325	305.98	.01
.869	101.325	308.67	.01
.758	101.325	312.33	.01
.61	101.325	318.02	.01
.552	101.325	320.78	.01
.481	101.325	324.67	.01
.414	101.325	330.13	.01
.353	101.325	334.07	.01
.326	101.325	336.59	.01
.289	101.325	340.6	.01
.207	101.325	348.26	.01
.168	101.325	352.97	.01
.136	101.325	357.97	.01
.125	101.325	360.26	.01
.106	101.325	363.12	.01
.098	101.325	364.81	.01
.068	101.325	369.97	.01
.045	101.325	372.75	.01
.037	101.325	375.47	.01
.036	101.325	376.2	.01
.029	101.325	377.88	.01
.017	101.325	379.11	.01
.013	101.325	380.2	.01
.007	101.325	381.66	.01
.01	101.325	381.96	.01

System: phenylmethane + tetrole; phases: Gas, Liquid
Property: Mole fraction of tetrole (Gas); method: Density calibration data
Mole fraction of tetrole	Pressure, kPa	Mole fraction of tetrole	uncertainty
.995	101.325	.996	.007
.958	101.325	.995	.007
.869	101.325	.989	.007
.758	101.325	.981	.007
.61	101.325	.966	.007
.552	101.325	.958	.007
.481	101.325	.945	.007
.414	101.325	.927	.007
.353	101.325	.901	.007
.326	101.325	.888	.007
.289	101.325	.867	.007
.207	101.325	.792	.007
.168	101.325	.733	.007
.136	101.325	.665	.007
.125	101.325	.637	.007
.106	101.325	.577	.007
.098	101.325	.56	.007
.068	101.325	.441	.007
.045	101.325	.361	.007
.037	101.325	.289	.007
.036	101.325	.283	.007
.029	101.325	.214	.007
.017	101.325	.154	.007
.013	101.325	.111	.007
.007	101.325	.068	.007
.01	101.325	.076	.007
