Measured thermophysical data. Present status of the modified UNIFAC Model for the prediction of phase equilibria and excess enthalpies for systems with ionic liquids
Source: Fluid Phase Equilib., 2014, 10.1016/j.fluid.2014.03.006
Compound 1: benzene, C6H6, purity 99.9%
Compound 2: methanol, CH4O, purity 99.5%
Compound 3: ethanol, C2H6O, purity 99.9%
Compound 4: 1-propanol, C3H8O, purity 99.9%
Compound 5: 2-propanol, C3H8O, purity 99.8%
Compound 6: 1-ethyl-3-methylimidazolium ethyl sulfate, C8H16N2O4S, purity 98%
Compound 7: 1-ethyl-3-methylimidazolium methylsulfate, C7H14N2O4S, purity 98%
Compound 8: 1-ethyl-3-methylimidazolium hydrogen sulfate, C6H12N2O4S, purity 98%
Compound 9: 1-butyl-3-methylimidazolium hexafluorophosphate, C8H15F6N2P, purity 98%
Compound 10: 1-hexyl-3-methylpyridinium bis[(trifluoromethyl)sulfonyl]amide, C14H20F6N2O4S2, purity 98%
Compound 11: 1-methyl-1-octylpyrrolidinium bis(trifluoromethylsulfonyl)amide, C15H28F6N2O4S2, purity 98%
Compound 12: water, H2O, purity 99.8%
Compound 13: 1-butanol, C4H10O, purity 99%

System: water + 1-ethyl-3-methylimidazolium ethyl sulfate; phases: Liquid
Fixed: Temperature, K = 363.15
Fixed: Pressure, kPa = 101
Property: Excess molar enthalpy (molar enthalpy of mixing), kJ/mol (Liquid); method: Flow calorimetry
Mole fraction of water	Excess molar enthalpy (molar enthalpy of mixing), kJ/mol	uncertainty
.0568	-.1429	.0005
.1109	-.2704	.0005
.1648	-.3724	.0005
.2223	-.4637	.0005
.2771	-.5496	.0005
.3324	-.6187	.0005
.3868	-.6844	.0005
.443	-.7355	.0005
.4986	-.7742	.0005
.5544	-.8	.0005
.6095	-.8144	.0005
.6653	-.8142	.0005
.7208	-.7987	.0005
.7767	-.7581	.0005
.8326	-.671	.0005
.8883	-.531	.0005
.9441	-.2923	.0005

System: benzene + 1-butyl-3-methylimidazolium hexafluorophosphate; phases: Liquid, Gas
Fixed: Temperature, K = 343.15
Property: Vapor or sublimation pressure, kPa (Liquid); method: Closed cell (Static) method
Mole fraction of benzene	Vapor or sublimation pressure, kPa	uncertainty
.00619	.8374	.0004187
.01788	2.401	.0012005
.03048	4.041	.0020205
.05246	6.848	.003424
.07816	10.08	.00504
.11265	14.41	.007205
.15735	20.06	.01003
.21363	26.89	.013445
.28263	35.14	.01757
.35931	44.04	.02202
.43797	52.81	.026405
.51513	60.88	.03044
.58742	67.73	.033865
.65235	72.69	.036345
.71098	73.18	.03659
.79357	73.23	.036615
.83768	73.24	.03662
.87598	73.24	.03662
.90808	73.26	.03663
.93425	73.28	.03664
.95438	73.31	.036655
.96866	73.34	.03667
.97881	73.37	.036685
.9857	73.39	.036695
.99038	73.41	.036705
.99393	73.43	.036715
.99639	73.44	.03672
.99841	73.46	.03673
1	73.47	.036735

System: 1-butanol + 1-hexyl-3-methylpyridinium bis[(trifluoromethyl)sulfonyl]amide; phases: Liquid, Gas
Fixed: Temperature, K = 353.15
Property: Vapor or sublimation pressure, kPa (Liquid); method: Closed cell (Static) method
Mole fraction of 1-butanol	Vapor or sublimation pressure, kPa	uncertainty
.01503	.4838	.0002419
.03606	1.162	.000581
.05372	1.734	.000867
.08515	2.743	.0013715
.12293	3.934	.001967
.17025	5.393	.0026965
.2297	7.229	.0036145
.30093	9.347	.0046735
.38301	11.69	.005845
.46749	13.89	.006945
.54829	15.79	.007895
.62244	17.3	.00865
.6877	18.46	.00923
.74317	19.29	.009645
.81275	20.22	.01011
.85053	20.68	.01034
.88349	20.96	.01048
.91133	21.16	.01058
.93424	21.33	.010665
.95266	21.44	.01072
.96674	21.54	.01077
.97679	21.6	.0108
.98407	21.66	.01083
.98919	21.71	.010855
.99279	21.74	.01087
.99568	21.77	.010885
.99745	21.79	.010895
.99906	21.81	.010905
1	21.82	.01091

System: methanol + 1-methyl-1-octylpyrrolidinium bis(trifluoromethylsulfonyl)amide; phases: Liquid, Gas
Fixed: Temperature, K = 353.15
Property: Vapor or sublimation pressure, kPa (Liquid); method: Closed cell (Static) method
Mole fraction of methanol	Vapor or sublimation pressure, kPa	uncertainty
.02745	4.687	.0023435
.07554	13.17	.006585
.12136	21.53	.010765
.18245	32.89	.016445
.24879	45.23	.022615
.32601	59.76	.02988
.41039	76	.038
.49778	92.68	.04634
.58379	108.9	.05445
.66123	123.3	.06165
.72745	135.3	.06765
.78243	144.9	.07245
.82685	152.4	.0762
.86204	157.9	.07895
.89059	162.5	.08125
.91829	166.5	.08325
.93678	169.2	.0846
.95213	171.5	.08575
.96456	173.3	.08665
.97439	174.9	.08745
.98771	177.1	.08855
.99162	177.8	.0889
.99434	178.3	.08915
.99626	178.6	.0893
.99756	178.9	.08945
.99856	179.1	.08955
.99918	179.2	.0896
.99969	179.4	.0897
1	179.4	.0897

System: ethanol + 1-methyl-1-octylpyrrolidinium bis(trifluoromethylsulfonyl)amide; phases: Liquid, Gas
Fixed: Temperature, K = 353.15
Property: Vapor or sublimation pressure, kPa (Liquid); method: Closed cell (Static) method
Mole fraction of ethanol	Vapor or sublimation pressure, kPa	uncertainty
.03062	3.586	.001793
.05736	6.66	.00333
.08646	10.11	.005055
.15021	17.85	.008925
.21579	25.9	.01295
.29044	35.11	.017555
.36637	44.66	.02233
.44946	54.82	.02741
.53704	65.25	.032625
.61932	74.49	.037245
.69064	82.02	.04101
.7508	87.9	.04395
.80018	92.4	.0462
.83976	95.77	.047885
.85677	97.23	.048615
.87229	98.36	.04918
.88687	99.52	.04976
.91181	101.3	.05065
.93282	102.7	.05135
.95003	103.9	.05195
.96378	104.8	.0524
.97458	105.6	.0528
.98262	106.1	.05305
.98819	106.6	.0533
.9921	106.9	.05345
.99472	107.1	.05355
.99648	107.3	.05365
.9978	107.4	.0537
.9987	107.5	.05375
.99944	107.6	.0538
1	107.6	.0538

System: 1-propanol + 1-methyl-1-octylpyrrolidinium bis(trifluoromethylsulfonyl)amide; phases: Liquid, Gas
Fixed: Temperature, K = 353.15
Property: Vapor or sublimation pressure, kPa (Liquid); method: Closed cell (Static) method
Mole fraction of 1-propanol	Vapor or sublimation pressure, kPa	uncertainty
.01373	.8016	.0004008
.04012	2.331	.0011655
.06659	3.907	.0019535
.10901	6.462	.003231
.15714	9.437	.0047185
.21695	13.25	.006625
.28965	17.86	.00893
.37209	23.01	.011505
.46203	28.44	.01422
.5485	33.38	.01669
.62706	37.51	.018755
.6956	40.75	.020375
.75336	43.19	.021595
.80065	44.97	.022485
.82443	45.95	.022975
.84009	46.3	.02315
.86024	47.06	.02353
.89034	47.91	.023955
.91598	48.56	.02428
.93721	49.06	.02453
.95431	49.45	.024725
.96781	49.75	.024875
.97792	49.99	.024995
.98496	50.15	.025075
.98991	50.29	.025145
.99323	50.39	.025195
.99546	50.48	.02524
.99713	50.54	.02527
.99831	50.6	.0253
.99927	50.65	.025325
1	50.69	.025345
