Measured thermophysical data. Phase equilibria of carbon dioxide + poly ethylene glycol + water mixtures at high pressure: Measurements and modeling
Source: Fluid Phase Equilib., 2009, 10.1016/j.fluid.2009.08.010
Compound 1: carbon dioxide, CO2
Compound 2: water, H2O

System: carbon dioxide + water; phases: Liquid, Gas
Property: Vapor or sublimation pressure, kPa (Liquid); method: Closed cell (Static) method
Mass fraction of carbon dioxide	Temperature, K	Vapor or sublimation pressure, kPa	uncertainty
.041	353	10000	30
.0514	353	20000	60
.055	353	30000	90
.032	393	10000	30
.058	393	30000	90

System: carbon dioxide + water; phases: Gas, Liquid
Property: Mass fraction of carbon dioxide (Gas); method: volume of gas released upon depressurization
Mass fraction of carbon dioxide	Temperature, K	Mass fraction of carbon dioxide	uncertainty
.041	353	.9968	
.0514	353	.9964	
.055	353	.996	
.032	393	.987	
.058	393	.9873	
