Measured thermophysical data. Vapour-liquid equilibria of the ternary mixture (1-pentanol + 2,2,4-trimethylpentane + heptane) and the binary mixture (2,2,4-trimethylpentane + heptane) at T = 313.15 K for the characterization of second generation biofuels.
Source: Fluid Phase Equilib., 2015, 10.1016/j.fluid.2015.07.049
Compound 1: 1-pentanol, C5H12O, purity 99.7%
Compound 2: 2,2,4-trimethylpentane, C8H18, purity 99.7%
Compound 3: heptane, C7H16, purity 99.7%

System: 1-pentanol; phases: Liquid, Gas
Property: Vapor or sublimation pressure, kPa (Liquid); method: Closed cell (Static) method
Temperature, K	Vapor or sublimation pressure, kPa	uncertainty
313.15	.898	.005

System: 2,2,4-trimethylpentane; phases: Liquid, Gas
Property: Vapor or sublimation pressure, kPa (Liquid); method: Closed cell (Static) method
Temperature, K	Vapor or sublimation pressure, kPa	uncertainty
313.15	12.944	.005
313.15	12.94	.005
313.15	12.939	.005

System: heptane; phases: Liquid, Gas
Property: Vapor or sublimation pressure, kPa (Liquid); method: Closed cell (Static) method
Temperature, K	Vapor or sublimation pressure, kPa	uncertainty
313.15	12.314	.005
313.15	12.313	.005
313.15	12.308	.005

System: heptane + 2,2,4-trimethylpentane; phases: Liquid, Gas
Fixed: Temperature, K = 313.15
Property: Vapor or sublimation pressure, kPa (Liquid); method: Closed cell (Static) method
Mole fraction of 2,2,4-trimethylpentane	Vapor or sublimation pressure, kPa	uncertainty
0	12.314	.005
.0496	12.347	.005
.0988	12.382	.005
.1484	12.414	.005
.1985	12.444	.005
.2491	12.474	.005
.2982	12.501	.005
.3483	12.534	.005
.3985	12.565	.005
.4485	12.593	.005
.4985	12.628	.005
.5485	12.662	.005
.5986	12.697	.005
.599	12.698	.005
.6495	12.732	.005
.6993	12.76	.005
.7494	12.79	.005
.7995	12.821	.005
.8499	12.854	.005
.9003	12.884	.005
.9508	12.914	.005
1	12.944	.005
.7001	12.75	.005
.2981	12.5	.005

System: 1-pentanol + heptane + 2,2,4-trimethylpentane; phases: Liquid, Gas
Fixed: Temperature, K = 313.15
Property: Vapor or sublimation pressure, kPa (Liquid); method: Closed cell (Static) method
Mole fraction of 1-pentanol	Mole fraction of 2,2,4-trimethylpentane	Vapor or sublimation pressure, kPa	uncertainty
1	0	.898	.005
.7012	.2988	9.795	.005
.6839	.2914	9.954	.005
.6663	.2839	10.119	.005
.631	.2689	10.399	.005
.5966	.2543	10.634	.005
.5607	.2391	10.854	.005
.5255	.2241	11.036	.005
.4908	.2093	11.199	.005
.4552	.1942	11.345	.005
.4201	.1793	11.475	.005
.3851	.1643	11.593	.005
.3498	.1493	11.832	.005
0	1	12.94	.005
.2993	.7007	12.308	.005
.2918	.683	12.314	.005
.2845	.6659	12.32	.005
.2694	.6307	12.333	.005
.2543	.5953	12.345	.005
.2393	.5603	12.355	.005
.2242	.5251	12.37	.005
.2092	.49	12.384	.005
.1943	.4549	12.398	.005
.1792	.4196	12.416	.005
.1642	.3846	12.43	.005
.1492	.3495	12.445	.005
0	0	12.313	.005
.299	0	11.751	.005
.2917	.0244	11.789	.005
.2842	.0494	11.831	.005
.2692	.0995	11.916	.005
.2544	.1491	11.997	.005
.2395	.1989	12.071	.005
.2245	.2488	12.153	.005
.2096	.2988	12.227	.005
.1946	.3488	12.298	.005
.1797	.3986	12.37	.005
.1648	.4484	12.44	.005
.1499	.4985	12.506	.005
1	0	.898	.005
.701	0	9.298	.005
.6835	.025	9.542	.005
.6664	.0493	9.764	.005
.6312	.0996	10.168	.005
.5961	.1495	10.515	.005
.5608	.1998	10.815	.005
.5257	.2499	11.072	.005
.4906	.2999	11.306	.005
.4553	.3503	11.514	.005
.4203	.4002	11.695	.005
.3853	.4501	11.867	.005
.3499	.5006	12.027	.005
0	1	12.939	.005
0	.7001	12.75	.005
.0235	.6837	12.822	.005
.0491	.6657	12.79	.005
.099	.6308	12.69	.005
.1493	.5956	12.571	.005
.1986	.561	12.445	.005
.2494	.5255	12.3	.005
.2998	.4902	12.141	.005
.3497	.4553	11.97	.005
.3999	.4201	11.777	.005
.4501	.385	11.554	.005
.5	.35	11.303	.005
0	0	12.308	.005
0	.2981	12.5	.005
.0234	.2911	12.576	.005
.0484	.2837	12.55	.005
.0982	.2688	12.452	.005
.149	.2537	12.336	.005
.1987	.2389	12.21	.005
.249	.2239	12.063	.005
.2991	.2089	11.912	.005
.349	.1941	11.745	.005
.3991	.1791	11.548	.005
.4493	.1642	11.332	.005
.4994	.1492	11.211	.005

System: 1-pentanol + 2,2,4-trimethylpentane; phases: Liquid, Gas
Property: Vapor or sublimation pressure, kPa (Liquid); method: Closed cell (Static) method
Mole fraction of 1-pentanol	Temperature, K	Vapor or sublimation pressure, kPa	uncertainty
.7012	313.15	9.795	.005
.2993	313.15	12.308	.005

System: 1-pentanol + heptane; phases: Liquid, Gas
Property: Vapor or sublimation pressure, kPa (Liquid); method: Closed cell (Static) method
Mole fraction of 1-pentanol	Temperature, K	Vapor or sublimation pressure, kPa	uncertainty
.299	313.15	11.751	.005
.701	313.15	9.298	.005
