Measured thermophysical data. The solid-liquid equilitbrium, excess molar volume and refractive deviation properties of binary systems containing dimethyl carbonate, anisole and phenol
Source: Fluid Phase Equilib., 2014, 10.1016/j.fluid.2014.09.024
Compound 1: dimethyl carbonate, C3H6O3, purity 99.9%
Compound 2: anisole, C7H8O, purity 99.9%
Compound 3: phenol, C6H6O, purity 99%
Compound 4: methanol, CH4O, purity 99.9%

System: anisole + dimethyl carbonate; phases: Liquid, Crystal
Fixed: Pressure, kPa = 101
Property: Solid-liquid equilibrium temperature, K (Liquid); method: Visual observation
Mole fraction of dimethyl carbonate	Solid-liquid equilibrium temperature, K	uncertainty
0	235.2	.1
.0533	233.6	.1
.0864	233	.1
.18	230	.1
.2	229.1	.1
.22	228.7	.1

System: anisole + dimethyl carbonate; phases: Liquid, Crystal
Fixed: Pressure, kPa = 101
Property: Solid-liquid equilibrium temperature, K (Liquid); method: Visual observation
Mole fraction of dimethyl carbonate	Solid-liquid equilibrium temperature, K	uncertainty
.2499	230.1	.1
.28	232.6	.1
.3002	235.2	.1
.4002	242	.1
.5012	249.7	.1
.6091	256.3	.1
.697	261.7	.1
.8	267.4	.1
.9002	272.6	.1
.9501	275.1	.1
1	278.2	.1

System: anisole + dimethyl carbonate; phases: Liquid
Fixed: Pressure, kPa = 101
Fixed: Temperature, K = 323.15
Property: Mass density, kg/m3 (Liquid); method: Vibrating tube method
Mole fraction of dimethyl carbonate	Mass density, kg/m3	uncertainty
0	965.35	.05
.05	967.83	.05
.1001	970.34	.05
.2001	975.5	.05
.3	980.89	.05
.4	986.63	.05
.5	992.69	.05
.5999	999.08	.05
.7	1005.87	.05
.8	1013.1	.05
.9	1020.95	.05
.95	1025.2	.05
1	1029.81	.05

System: anisole + dimethyl carbonate; phases: Liquid
Fixed: Pressure, kPa = 101
Fixed: Temperature, K = 323.15
Property: Refractive index (Na D-line) (Liquid); method: Standard Abbe refractometry
Mole fraction of dimethyl carbonate	Refractive index (Na D-line)	uncertainty
0	1.5012	.0001
.05	1.4963	.0001
.1001	1.4908	.0001
.2001	1.4795	.0001
.3	1.4659	.0001
.4	1.4516	.0001
.5	1.437	.0001
.5999	1.4226	.0001
.7	1.4087	.0001
.8	1.393	.0001
.9	1.3754	.0001
.95	1.3655	.0001
1	1.3546	.0001

System: anisole + dimethyl carbonate; phases: Liquid, Crystal, Crystal
Property: Eutectic temperature, K (Liquid); method: UNIQUAC
Mole fraction of dimethyl carbonate	Eutectic temperature, K	uncertainty
.2364	228.86	.1

System: phenol + dimethyl carbonate; phases: Liquid, Crystal
Fixed: Pressure, kPa = 101
Property: Solid-liquid equilibrium temperature, K (Liquid); method: Visual observation
Mole fraction of dimethyl carbonate	Solid-liquid equilibrium temperature, K	uncertainty
0	314.1	.1
.0504	309.5	.1
.0998	305.1	.1
.1997	296.5	.1
.3	284	.1
.4002	271.7	.1
.5	257.3	.1
.56	247.1	.1
.5802	244.9	.1

System: phenol + dimethyl carbonate; phases: Liquid, Crystal
Fixed: Pressure, kPa = 101
Property: Solid-liquid equilibrium temperature, K (Liquid); method: Visual observation
Mole fraction of dimethyl carbonate	Solid-liquid equilibrium temperature, K	uncertainty
.6009	245.7	.1
.62	247.1	.1
.7002	255.7	.1
.8149	265.4	.1
.8999	272.2	.1
.9499	275.2	.1
1	278.2	.1

System: phenol + dimethyl carbonate; phases: Liquid
Fixed: Pressure, kPa = 101
Fixed: Temperature, K = 323.15
Property: Mass density, kg/m3 (Liquid); method: Vibrating tube method
Mole fraction of dimethyl carbonate	Mass density, kg/m3	uncertainty
0	1049.79	.05
.0469	1049.78	.05
.1001	1049.78	.05
.2001	1049.38	.05
.3	1048.47	.05
.3999	1047.12	.05
.5	1045.31	.05
.6	1043	.05
.7001	1040.26	.05
.8	1037.11	.05
.9	1033.66	.05
.9499	1031.81	.05
1	1029.81	.05

System: phenol + dimethyl carbonate; phases: Liquid
Fixed: Pressure, kPa = 101
Fixed: Temperature, K = 323.15
Property: Refractive index (Na D-line) (Liquid); method: Standard Abbe refractometry
Mole fraction of dimethyl carbonate	Refractive index (Na D-line)	uncertainty
0	1.5375	.0001
.0469	1.53	.0001
.1001	1.5222	.0001
.2001	1.5068	.0001
.3	1.4912	.0001
.3999	1.479	.0001
.5	1.4698	.0001
.6	1.4592	.0001
.7001	1.4428	.0001
.8	1.4169	.0001
.9	1.384	.0001
.9499	1.3675	.0001
1	1.3546	.0001

System: phenol + dimethyl carbonate; phases: Liquid, Crystal, Crystal
Property: Eutectic temperature, K (Liquid); method: UNIQUAC
Mole fraction of dimethyl carbonate	Eutectic temperature, K	uncertainty
.5839	243.1	.1

System: anisole + phenol; phases: Liquid, Crystal
Fixed: Pressure, kPa = 101
Property: Solid-liquid equilibrium temperature, K (Liquid); method: Visual observation
Mole fraction of phenol	Solid-liquid equilibrium temperature, K	uncertainty
0	314.1	.1
.0508	310.1	.1
.0965	306.3	.1
.1977	298.4	.1
.3004	289.9	.1
.4054	279.4	.1
.4981	269	.1
.5997	254.8	.1
.7002	240.8	.1
.75	231.5	.1
.78	229.2	.1

System: anisole + phenol; phases: Liquid, Crystal
Fixed: Pressure, kPa = 101
Property: Solid-liquid equilibrium temperature, K (Liquid); method: Visual observation
Mole fraction of phenol	Solid-liquid equilibrium temperature, K	uncertainty
.7997	230.1	.1
.8498	231.5	.1
.9003	233.3	.1
.948	234.6	.1
1	235.2	.1

System: anisole + phenol; phases: Liquid
Fixed: Pressure, kPa = 101
Fixed: Temperature, K = 323.15
Property: Mass density, kg/m3 (Liquid); method: Vibrating tube method
Mole fraction of anisole	Mass density, kg/m3	uncertainty
0	1049.8	.05
.05	1044.95	.05
.1001	1040.35	.05
.2	1031.27	.05
.3	1022.44	.05
.4	1013.68	.05
.5	1005.11	.05
.6103	995.89	.05
.7	988.65	.05
.8	980.8	.05
.9001	973.1	.05
.9498	969.31	.05
1	965.35	.05

System: anisole + phenol; phases: Liquid
Fixed: Pressure, kPa = 101
Fixed: Temperature, K = 323.15
Property: Refractive index (Na D-line) (Liquid); method: Standard Abbe refractometry
Mole fraction of anisole	Refractive index (Na D-line)	uncertainty
0	1.5375	.0001
.05	1.535	.0001
.1001	1.5333	.0001
.2	1.5296	.0001
.3	1.5259	.0001
.4	1.522	.0001
.5	1.5183	.0001
.6103	1.5144	.0001
.7	1.5114	.0001
.8	1.508	.0001
.9001	1.5047	.0001
.9498	1.503	.0001
1	1.5012	.0001

System: anisole + phenol; phases: Liquid, Crystal, Crystal
Property: Eutectic temperature, K (Liquid); method: UNIQUAC
Mole fraction of anisole	Eutectic temperature, K	uncertainty
.7618	229.5	.1
