Measured thermophysical data. Liquid-liquid equilibria for benzaldehyde + n-alkane mixtures andcharacterization of benzaldehyde + hydrocarbon systems in terms of DISQUAC
Source: Fluid Phase Equilib., 2014, 10.1016/j.fluid.2014.01.013
Compound 1: benzaldehyde, C7H6O, purity 99%
Compound 2: decane, C10H22, purity 99%
Compound 3: dodecane, C12H26, purity 98%
Compound 4: tetradecane, C14H30, purity 99%
Compound 5: hexadecane, C16H34, purity 99%

System: benzaldehyde; phases: Liquid
Fixed: Pressure, kPa = 101.325
Property: Mass density, kg/m3 (Liquid); method: Vibrating tube method
Temperature, K	Mass density, kg/m3	uncertainty
298.15	1042.942	.02

System: decane; phases: Liquid
Fixed: Pressure, kPa = 101.325
Property: Mass density, kg/m3 (Liquid); method: Vibrating tube method
Temperature, K	Mass density, kg/m3	uncertainty
298.15	726.43	.02

System: dodecane; phases: Liquid
Fixed: Pressure, kPa = 101.325
Property: Mass density, kg/m3 (Liquid); method: Vibrating tube method
Temperature, K	Mass density, kg/m3	uncertainty
298.15	741.54	.02

System: tetradecane; phases: Liquid
Fixed: Pressure, kPa = 101.325
Property: Mass density, kg/m3 (Liquid); method: Vibrating tube method
Temperature, K	Mass density, kg/m3	uncertainty
298.15	759.27	.02

System: hexadecane; phases: Liquid
Fixed: Pressure, kPa = 101.325
Property: Mass density, kg/m3 (Liquid); method: Vibrating tube method
Temperature, K	Mass density, kg/m3	uncertainty
298.15	770.21	.02

System: benzaldehyde + decane; phases: Liquid mixture 1, Liquid mixture 2
Fixed: Pressure, kPa = 100
Property: Liquid-liquid equilibrium temperature, K (Liquid mixture 1); method: Visual observation
Mole fraction of benzaldehyde	Liquid-liquid equilibrium temperature, K	uncertainty
.3758	275.9	.05
.4033	276.91	.05
.4099	276.96	.05
.4174	277.25	.05
.4193	277.25	.05
.4233	277.34	.05
.4261	277.4	.05
.4657	278.26	.05
.4896	278.45	.05
.4915	278.29	.05
.5012	278.53	.05
.5123	278.38	.05
.5178	278.4	.05
.5289	278.51	.05
.5433	278.49	.05
.561	278.49	.05
.5747	278.56	.05
.5863	278.61	.05
.5917	278.71	.05
.6044	278.61	.05
.6113	278.61	.05
.622	278.44	.05
.6346	278.42	.05
.6453	278.33	.05
.6487	278.36	.05
.6646	278.52	.05
.6662	278.28	.05
.6869	278.12	.05
.6895	278.13	.05
.69	278.11	.05
.6923	278.08	.05
.7224	277.57	.05
.7271	277.42	.05
.7493	276.54	.05

System: benzaldehyde + dodecane; phases: Liquid mixture 1, Liquid mixture 2
Fixed: Pressure, kPa = 100
Property: Liquid-liquid equilibrium temperature, K (Liquid mixture 1); method: Visual observation
Mole fraction of benzaldehyde	Liquid-liquid equilibrium temperature, K	uncertainty
.3627	279.16	.05
.3852	280.03	.05
.4281	281.75	.05
.4302	281.82	.05
.4509	282.4	.05
.504	283.92	.05
.5253	283.97	.05
.5542	284.65	.05
.5586	284.6	.05
.5841	284.79	.05
.5946	284.7	.05
.5981	284.72	.05
.6099	284.67	.05
.6299	284.61	.05
.6328	284.79	.05
.6555	284.77	.05
.6683	284.7	.05
.6811	284.74	.05
.6943	284.62	.05
.7173	284.32	.05
.7364	284.14	.05
.7394	284.26	.05
.7577	284.01	.05
.7759	283.29	.05
.7863	282.86	.05
.8071	281.61	.05
.8248	280.13	.05
.8297	279.83	.05
.8362	279.1	.05

System: benzaldehyde + tetradecane; phases: Liquid mixture 1, Liquid mixture 2
Fixed: Pressure, kPa = 100
Property: Liquid-liquid equilibrium temperature, K (Liquid mixture 1); method: Visual observation
Mole fraction of benzaldehyde	Liquid-liquid equilibrium temperature, K	uncertainty
.425	284.41	.05
.4437	285.42	.05
.4741	286.87	.05
.4782	287.04	.05
.4904	287.7	.05
.506	288.06	.05
.524	288.53	.05
.5325	288.6	.05
.5589	289.09	.05
.5692	289.44	.05
.5764	289.52	.05
.593	289.97	.05
.5983	290.02	.05
.6048	290.04	.05
.6199	290.17	.05
.6283	290.01	.05
.6597	290.16	.05
.6677	289.99	.05
.6897	289.92	.05
.6975	289.97	.05
.7193	289.93	.05
.7373	289.84	.05
.7664	289.57	.05
.7691	289.44	.05
.7761	289.36	.05
.7823	289.16	.05
.7913	288.97	.05
.7923	288.92	.05
.8097	288.36	.05
.8163	288.09	.05
.8254	287.68	.05
.8294	287.62	.05
.8374	286.87	.05
.85	285.97	.05
.8645	284.99	.05

System: benzaldehyde + hexadecane; phases: Liquid mixture 1, Liquid mixture 2
Fixed: Pressure, kPa = 100
Property: Liquid-liquid equilibrium temperature, K (Liquid mixture 1); method: Visual observation
Mole fraction of benzaldehyde	Liquid-liquid equilibrium temperature, K	uncertainty
.4279	286.71	.05
.459	289.85	.05
.4839	291.95	.05
.518	294.23	.05
.5257	294.7	.05
.5485	295.64	.05
.5653	296.49	.05
.5807	296.87	.05
.5927	297.18	.05
.6005	297.09	.05
.6035	297.27	.05
.6061	297.24	.05
.6165	297.45	.05
.6376	297.75	.05
.6556	297.94	.05
.6783	298.08	.05
.691	298.08	.05
.7155	298.11	.05
.7489	297.94	.05
.7543	297.97	.05
.764	297.99	.05
.7926	297.73	.05
.8488	295.67	.05
.8509	295.7	.05
.8528	295.53	.05
.872	293.27	.05
.8851	290.58	.05
