Measured thermophysical data. Vapor-liquid equilibria and volumetric properties for new working fluid ([C6H11N2][HSO4] + LiBr + H2O) and corresponding binary systems at different temperatures and ambient pressure
Source: Fluid Phase Equilib., 2016, 10.1016/j.fluid.2016.08.036
Compound 1: 1-ethyl-3-methylimidazolium hydrogen sulfate, C6H12N2O4S, purity 98%
Compound 2: lithium bromide, BrLi, purity 99%
Compound 3: water, H2O, purity 99.8%
Compound 4: sodium chloride, ClNa, purity 99%

System: water + 1-ethyl-3-methylimidazolium hydrogen sulfate; phases: Liquid
Property: (Relative) activity of water (Liquid); method: isopiestic
Pressure, kPa	Temperature, K	Molality, mol/kg of 1-ethyl-3-methylimidazolium hydrogen sulfate	(Relative) activity of water	uncertainty
3.07	298.15	1.0749	.9672	
3.05	298.15	1.2497	.9616	
3.04	298.15	1.3624	.958	
3.01	298.15	1.617	.9498	
2.96	298.15	2.1706	.9329	
2.95	298.15	2.2619	.9298	
2.94	298.15	2.4126	.9249	
2.91	298.15	2.6778	.9165	
2.86	298.15	3.1484	.9018	
2.83	298.15	3.5061	.8907	
2.79	298.15	3.8457	.8797	
2.78	298.15	3.9449	.8762	
2.74	298.15	4.3728	.8618	
2.62	298.15	5.4239	.8252	
2.48	298.15	6.7721	.781	

System: water + 1-ethyl-3-methylimidazolium hydrogen sulfate; phases: Gas, Liquid
Fixed: Temperature, K = 298.15
Property: Vapor or sublimation pressure, kPa (Gas); method: isopiestic
Molality, mol/kg of 1-ethyl-3-methylimidazolium hydrogen sulfate	Vapor or sublimation pressure, kPa	uncertainty
1.0749	3.07	
1.2497	3.05	
1.3624	3.04	
1.617	3.01	
2.1706	2.96	
2.2619	2.95	
2.4126	2.94	
2.6778	2.91	
3.1484	2.86	
3.5061	2.83	
3.8457	2.79	
3.9449	2.78	
4.3728	2.74	
5.4239	2.62	
6.7721	2.48	

System: water + 1-ethyl-3-methylimidazolium hydrogen sulfate; phases: Liquid
Fixed: Pressure, kPa = 87
Property: Mass density, kg/m3 (Liquid); method: Vibrating tube method
Temperature, K	Molality, mol/kg of 1-ethyl-3-methylimidazolium hydrogen sulfate	Mass density, kg/m3	uncertainty
293.15	.0363	1000.86	
293.15	.0687	1003.08	
293.15	.1026	1005.3	
293.15	.1384	1007.57	
293.15	.1716	1009.63	
293.15	.2049	1011.67	
293.15	.2391	1013.72	
293.15	.2718	1015.68	
293.15	.3034	1017.53	
293.15	.3375	1019.54	
298.15	.0363	999.65	
298.15	.0687	1001.82	
298.15	.1026	1003.99	
298.15	.1384	1006.22	
298.15	.1716	1008.23	
298.15	.2049	1010.23	
298.15	.2391	1012.24	
298.15	.2718	1014.17	
298.15	.3034	1016	
298.15	.3375	1017.98	
303.15	.0363	998.2	
303.15	.0687	1000.33	
303.15	.1026	1002.46	
303.15	.1384	1004.64	
303.15	.1716	1006.63	
303.15	.2049	1008.6	
303.15	.2391	1010.58	
303.15	.2718	1012.47	
303.15	.3034	1014.26	
303.15	.3375	1016.21	
308.15	.0363	996.54	
308.15	.0687	998.63	
308.15	.1026	1000.73	
308.15	.1384	1002.87	
308.15	.1716	1004.82	
308.15	.2049	1006.76	
308.15	.2391	1008.7	
308.15	.2718	1010.58	
308.15	.3034	1012.34	
308.15	.3375	1014.25	
313.15	.0363	994.68	
313.15	.0687	996.73	
313.15	.1026	998.8	
313.15	.1384	1000.91	
313.15	.1716	1002.83	
313.15	.2049	1004.74	
313.15	.2391	1006.66	
313.15	.2718	1008.5	
313.15	.3034	1010.24	
313.15	.3375	1012.13	

System: lithium bromide + water; phases: Liquid
Property: (Relative) activity of water (Liquid); method: isopiestic
Pressure, kPa	Temperature, K	Molality, mol/kg of lithium bromide	(Relative) activity of water	uncertainty
3.07	298.15	.9228	.9672	
3.05	298.15	1.0531	.9616	
3.04	298.15	1.1457	.958	
3.01	298.15	1.3221	.9498	
2.96	298.15	1.6917	.9329	
2.95	298.15	1.7495	.9298	
2.94	298.15	1.8433	.9249	
2.91	298.15	2.0223	.9165	
2.86	298.15	2.2984	.9018	
2.83	298.15	2.5087	.8907	
2.79	298.15	2.6711	.8797	
2.78	298.15	2.736	.8762	
2.74	298.15	2.9763	.8618	
2.62	298.15	3.5508	.8252	
2.48	298.15	4.2027	.781	

System: lithium bromide + water; phases: Gas, Liquid
Fixed: Temperature, K = 298.15
Property: Vapor or sublimation pressure, kPa (Gas); method: isopiestic
Molality, mol/kg of lithium bromide	Vapor or sublimation pressure, kPa	uncertainty
.9228	3.07	
1.0531	3.05	
1.1457	3.04	
1.3221	3.01	
1.6917	2.96	
1.7495	2.95	
1.8433	2.94	
2.0223	2.91	
2.2984	2.86	
2.5087	2.83	
2.6711	2.79	
2.736	2.78	
2.9763	2.74	
3.5508	2.62	
4.2027	2.48	

System: lithium bromide + water + 1-ethyl-3-methylimidazolium hydrogen sulfate; phases: Liquid
Fixed: Temperature, K = 298.15
Property: (Relative) activity of water (Liquid); method: isopiestic
Pressure, kPa	Molality, mol/kg of 1-ethyl-3-methylimidazolium hydrogen sulfate	Molality, mol/kg of lithium bromide	(Relative) activity of water	uncertainty
3.07	1.0749	0	.9672	
3.07	.4819	.4287	.9672	
3.07	.2374	.6611	.9672	
3.07	0	.9228	.9672	
3.05	1.2497	0	.9616	
3.05	.5796	.4511	.9616	
3.05	.2639	.7532	.9616	
3.05	0	1.0531	.9616	
3.04	1.3624	0	.958	
3.04	.6008	.5111	.958	
3.04	.2688	.8084	.958	
3.04	0	1.1457	.958	
3.01	1.617	0	.9498	
3.01	.6642	.656	.9498	
3.01	.2741	1.0121	.9498	
3.01	0	1.3221	.9498	
2.96	2.1706	0	.9329	
2.96	1.0011	.7598	.9329	
2.96	.3437	1.3178	.9329	
2.96	0	1.6917	.9329	
2.95	2.2619	0	.9298	
2.95	1.025	.8057	.9298	
2.95	.3754	1.3365	.9298	
2.95	0	1.7495	.9298	
2.94	2.4126	0	.9249	
2.94	1.0641	.8427	.9249	
2.94	.413	1.3753	.9249	
2.94	0	1.8433	.9249	
2.91	2.6778	0	.9165	
2.91	1.1751	.9	.9165	
2.91	.4193	1.5597	.9165	
2.91	0	2.0223	.9165	
2.86	3.1484	0	.9018	
2.86	1.4304	.9809	.9018	
2.86	.5012	1.7525	.9018	
2.86	0	2.2984	.9018	
2.83	3.5061	0	.8907	
2.83	1.4916	1.0285	.8907	
2.83	.5041	1.9448	.8907	
2.83	0	2.5087	.8907	
2.79	3.8457	0	.8797	
2.79	1.6093	1.1374	.8797	
2.79	.5094	2.1169	.8797	
2.79	0	2.6711	.8797	
2.78	3.9449	0	.8762	
2.78	1.6394	1.1722	.8762	
2.78	.517	2.1395	.8762	
2.78	0	2.736	.8762	
2.74	4.3728	0	.8618	
2.74	1.8444	1.2595	.8618	
2.74	.5628	2.2967	.8618	
2.74	0	2.9763	.8618	
2.62	5.4239	0	.8252	
2.62	2.2062	1.5124	.8252	
2.62	.7144	2.7413	.8252	
2.62	0	3.5508	.8252	
2.48	6.7721	0	.781	
2.48	2.7579	1.6419	.781	
2.48	.8634	3.1163	.781	
2.48	0	4.2027	.781	

System: lithium bromide + water + 1-ethyl-3-methylimidazolium hydrogen sulfate; phases: Gas, Liquid
Fixed: Temperature, K = 298.15
Property: Vapor or sublimation pressure, kPa (Gas); method: isopiestic
Molality, mol/kg of 1-ethyl-3-methylimidazolium hydrogen sulfate	Molality, mol/kg of lithium bromide	Vapor or sublimation pressure, kPa	uncertainty
1.0749	0	3.07	
.4819	.4287	3.07	
.2374	.6611	3.07	
0	.9228	3.07	
1.2497	0	3.05	
.5796	.4511	3.05	
.2639	.7532	3.05	
0	1.0531	3.05	
1.3624	0	3.04	
.6008	.5111	3.04	
.2688	.8084	3.04	
0	1.1457	3.04	
1.617	0	3.01	
.6642	.656	3.01	
.2741	1.0121	3.01	
0	1.3221	3.01	
2.1706	0	2.96	
1.0011	.7598	2.96	
.3437	1.3178	2.96	
0	1.6917	2.96	
2.2619	0	2.95	
1.025	.8057	2.95	
.3754	1.3365	2.95	
0	1.7495	2.95	
2.4126	0	2.94	
1.0641	.8427	2.94	
.413	1.3753	2.94	
0	1.8433	2.94	
2.6778	0	2.91	
1.1751	.9	2.91	
.4193	1.5597	2.91	
0	2.0223	2.91	
3.1484	0	2.86	
1.4304	.9809	2.86	
.5012	1.7525	2.86	
0	2.2984	2.86	
3.5061	0	2.83	
1.4916	1.0285	2.83	
.5041	1.9448	2.83	
0	2.5087	2.83	
3.8457	0	2.79	
1.6093	1.1374	2.79	
.5094	2.1169	2.79	
0	2.6711	2.79	
3.9449	0	2.78	
1.6394	1.1722	2.78	
.517	2.1395	2.78	
0	2.736	2.78	
4.3728	0	2.74	
1.8444	1.2595	2.74	
.5628	2.2967	2.74	
0	2.9763	2.74	
5.4239	0	2.62	
2.2062	1.5124	2.62	
.7144	2.7413	2.62	
0	3.5508	2.62	
6.7721	0	2.48	
2.7579	1.6419	2.48	
.8634	3.1163	2.48	
0	4.2027	2.48	

System: lithium bromide + water + 1-ethyl-3-methylimidazolium hydrogen sulfate; phases: Liquid
Fixed: Pressure, kPa = 87
Property: Mass density, kg/m3 (Liquid); method: Vibrating tube method
Temperature, K	Molality, mol/kg of 1-ethyl-3-methylimidazolium hydrogen sulfate	Solvent: Mass fraction of lithium bromide	Mass density, kg/m3	uncertainty
293.15	.0366	.05	1037.57	
293.15	.0682	.05	1039.82	
293.15	.1026	.05	1042.2	
293.15	.1388	.05	1044.64	
293.15	.1713	.05	1046.79	
293.15	.2055	.05	1049.02	
293.15	.2389	.05	1051.18	
293.15	.2729	.05	1053.35	
293.15	.3037	.05	1055.32	
293.15	.3372	.05	1057.46	
298.15	.0366	.05	1036.24	
298.15	.0682	.05	1038.45	
298.15	.1026	.05	1040.78	
298.15	.1388	.05	1043.17	
298.15	.1713	.05	1045.28	
298.15	.2055	.05	1047.45	
298.15	.2389	.05	1049.57	
298.15	.2729	.05	1051.73	
298.15	.3037	.05	1053.66	
298.15	.3372	.05	1055.76	
303.15	.0366	.05	1034.69	
303.15	.0682	.05	1036.86	
303.15	.1026	.05	1039.15	
303.15	.1388	.05	1041.49	
303.15	.1713	.05	1043.57	
303.15	.2055	.05	1045.72	
303.15	.2389	.05	1047.8	
303.15	.2729	.05	1049.91	
303.15	.3037	.05	1051.81	
303.15	.3372	.05	1053.87	
308.15	.0366	.05	1032.96	
308.15	.0682	.05	1035.09	
308.15	.1026	.05	1037.33	
308.15	.1388	.05	1039.63	
308.15	.1713	.05	1041.67	
308.15	.2055	.05	1043.78	
308.15	.2389	.05	1045.83	
308.15	.2729	.05	1047.91	
308.15	.3037	.05	1049.78	
308.15	.3372	.05	1051.81	
313.15	.0366	.05	1031.03	
313.15	.0682	.05	1033.13	
313.15	.1026	.05	1035.33	
313.15	.1388	.05	1037.6	
313.15	.1713	.05	1039.59	
313.15	.2055	.05	1041.68	
313.15	.2389	.05	1043.71	
313.15	.2729	.05	1045.76	
313.15	.3037	.05	1047.62	
313.15	.3372	.05	1049.62	
293.15	.0362	.1	1076.74	
293.15	.0677	.1	1079.13	
293.15	.103	.1	1081.72	
293.15	.1383	.1	1084.25	
293.15	.1731	.1	1086.69	
293.15	.2047	.1	1088.87	
293.15	.2391	.1	1091.22	
293.15	.2733	.1	1093.54	
293.15	.3064	.1	1095.78	
293.15	.3359	.1	1097.76	
298.15	.0362	.1	1075.27	
298.15	.0677	.1	1077.62	
298.15	.103	.1	1080.17	
298.15	.1383	.1	1082.64	
298.15	.1731	.1	1085.04	
298.15	.2047	.1	1087.19	
298.15	.2391	.1	1089.5	
298.15	.2733	.1	1091.79	
298.15	.3064	.1	1093.98	
298.15	.3359	.1	1095.94	
303.15	.0362	.1	1073.6	
303.15	.0677	.1	1075.92	
303.15	.103	.1	1078.42	
303.15	.1383	.1	1080.86	
303.15	.1731	.1	1083.22	
303.15	.2047	.1	1085.33	
303.15	.2391	.1	1087.61	
303.15	.2733	.1	1089.86	
303.15	.3064	.1	1092.03	
303.15	.3359	.1	1093.96	
308.15	.0362	.1	1071.77	
308.15	.0677	.1	1074.05	
308.15	.103	.1	1076.51	
308.15	.1383	.1	1078.91	
308.15	.1731	.1	1081.23	
308.15	.2047	.1	1083.32	
308.15	.2391	.1	1085.57	
308.15	.2733	.1	1087.79	
308.15	.3064	.1	1089.93	
308.15	.3359	.1	1091.83	
313.15	.0362	.1	1069.77	
313.15	.0677	.1	1072.01	
313.15	.103	.1	1074.44	
313.15	.1383	.1	1076.81	
313.15	.1731	.1	1079.1	
313.15	.2047	.1	1081.16	
313.15	.2391	.1	1083.38	
313.15	.2733	.1	1085.58	
313.15	.3064	.1	1087.7	
313.15	.3359	.1	1089.58	
293.15	.0359	.15	1118.33	
293.15	.0685	.15	1121	
293.15	.1013	.15	1123.56	
293.15	.1389	.15	1126.4	
293.15	.1719	.15	1128.81	
293.15	.205	.15	1131.19	
293.15	.2405	.15	1133.69	
293.15	.2727	.15	1135.94	
293.15	.3042	.15	1138.11	
293.15	.3372	.15	1140.39	
298.15	.0359	.15	1116.72	
298.15	.0685	.15	1119.34	
298.15	.1013	.15	1121.86	
298.15	.1389	.15	1124.63	
298.15	.1719	.15	1127.01	
298.15	.205	.15	1129.35	
298.15	.2405	.15	1131.82	
298.15	.2727	.15	1134.05	
298.15	.3042	.15	1136.2	
298.15	.3372	.15	1138.45	
303.15	.0359	.15	1114.95	
303.15	.0685	.15	1117.54	
303.15	.1013	.15	1120.03	
303.15	.1389	.15	1122.77	
303.15	.1719	.15	1125.11	
303.15	.205	.15	1127.42	
303.15	.2405	.15	1129.84	
303.15	.2727	.15	1132.03	
303.15	.3042	.15	1134.15	
303.15	.3372	.15	1136.37	
308.15	.0359	.15	1113.03	
308.15	.0685	.15	1115.58	
308.15	.1013	.15	1118.03	
308.15	.1389	.15	1120.74	
308.15	.1719	.15	1123.04	
308.15	.205	.15	1125.31	
308.15	.2405	.15	1127.71	
308.15	.2727	.15	1129.87	
308.15	.3042	.15	1131.96	
308.15	.3372	.15	1134.17	
313.15	.0359	.15	1110.97	
313.15	.0685	.15	1113.49	
313.15	.1013	.15	1115.9	
313.15	.1389	.15	1118.57	
313.15	.1719	.15	1120.84	
313.15	.205	.15	1123.08	
313.15	.2405	.15	1125.46	
313.15	.2727	.15	1127.59	
313.15	.3042	.15	1129.67	
313.15	.3372	.15	1131.85	
