Measured thermophysical data. Solubility temperature dependence and preferential solvation of sulfadiazine in 1,4-dioxane + water co-solvent mixtures
Source: Fluid Phase Equilib., 2015, 10.1016/j.fluid.2015.03.046
Compound 1: water, H2O, purity 99.9%
Compound 2: sulfadiazine, C10H10N4O2S, purity 99%
Compound 3: 1,4-dioxane, C4H8O2, purity 99.8%

System: sulfadiazine + 1,4-dioxane + water; phases: Liquid, Crystal
Fixed: Pressure, kPa = 73.9
Property: Mole fraction of sulfadiazine (Liquid); method: UV spectrophotometry
Temperature, K	Solvent: Mole fraction of 1,4-dioxane	Mole fraction of sulfadiazine	uncertainty
293.15	0	.000003799	.000000013
293.15	.0222	.00000968	.00000024
293.15	.0486	.0000256	.0000007
293.15	.0806	.0000624	.0000011
293.15	.12	.00013	.000003
293.15	.1698	.000238	.000006
293.15	.2347	.000428	.00001
293.15	.323	.0007	.000011
293.15	.3802	.000882	.000006
293.15	.4499	.001064	.000012
293.15	.5368	.001232	.000013
293.15	.6479	.001237	.00001
293.15	.7161	.001184	.000021
293.15	.7953	.001041	.000006
293.15	.8886	.000746	.000013
293.15	1	.000397	.000006
298.15	0	.000004809	.000000029
298.15	.0222	.00001276	.00000017
298.15	.0486	.0000317	.0000006
298.15	.0806	.0000796	.000001
298.15	.12	.000158	.000003
298.15	.1698	.000281	.000007
298.15	.2347	.000538	.0000017
298.15	.323	.000876	.00001
298.15	.3802	.001094	.000024
298.15	.4499	.001298	.000023
298.15	.5368	.001528	.000009
298.15	.6479	.001505	.000004
298.15	.7161	.001447	.000016
298.15	.7953	.001203	.000029
298.15	.8886	.000929	.000025
298.15	1	.000575	.000012
303.15	0	.00000649	.00000004
303.15	.0222	.00001628	.00000013
303.15	.0486	.0000405	.000001
303.15	.0806	.0001041	.0000012
303.15	.12	.000201	.000003
303.15	.1698	.0003607	.0000015
303.15	.2347	.000656	.000017
303.15	.323	.001088	.000011
303.15	.3802	.001339	.000013
303.15	.4499	.001565	.000026
303.15	.5368	.001832	.000005
303.15	.6479	.001821	.000016
303.15	.7161	.0017	.00003
303.15	.7953	.001467	.000028
303.15	.8886	.001243	.000013
303.15	1	.000789	.000022
308.15	0	.00000868	.00000018
308.15	.0222	.0000215	.0000003
308.15	.0486	.000053	.0000004
308.15	.0806	.0001335	.0000005
308.15	.12	.000273	.000003
308.15	.1698	.000483	.000009
308.15	.2347	.000818	.000014
308.15	.323	.001325	.000014
308.15	.3802	.00167	.000016
308.15	.4499	.001936	.00001
308.15	.5368	.0022	.000014
308.15	.6479	.002163	.000028
308.15	.7161	.002049	.000024
308.15	.7953	.00183	.00004
308.15	.8886	.00152	.00007
308.15	1	.00106	.00003
313.15	0	.00001141	.00000015
313.15	.0222	.0000286	.0000005
313.15	.0486	.0000707	.0000006
313.15	.0806	.0001678	.0000019
313.15	.12	.000338	.000008
313.15	.1698	.000597	.000021
313.15	.2347	.001063	.000012
313.15	.323	.00164	.00004
313.15	.3802	.00197	.00004
313.15	.4499	.00228	.00006
313.15	.5368	.0026	.000023
313.15	.6479	.002556	.000015
313.15	.7161	.00245	.00003
313.15	.7953	.002161	.000018
313.15	.8886	.001831	.000013
313.15	1	.00138	.00004
