Measured thermophysical data. Prediction of different thermodynamic properties for systems of alcohols and sulfate-based anion Ionic Liquids using modified UNIFAC
Source: Fluid Phase Equilib., 2013, 10.1016/j.fluid.2012.11.003
Compound 1: methanol, CH4O, purity 99.5%
Compound 2: ethanol, C2H6O, purity 99.9%
Compound 3: 1-propanol, C3H8O, purity 99.9%
Compound 4: 2-propanol, C3H8O, purity 99.8%
Compound 5: 1-butanol, C4H10O, purity 99.9%
Compound 6: 2-butanol, C4H10O, purity 99.8%
Compound 7: 1-ethyl-3-methylimidazolium ethyl sulfate, C8H16N2O4S
Compound 8: 1-ethyl-3-methylimidazolium methylsulfate, C7H14N2O4S
Compound 9: 1-ethyl-3-methylimidazolium hydrogen sulfate, C6H12N2O4S

System: methanol + 1-ethyl-3-methylimidazolium ethyl sulfate; phases: Liquid
Fixed: Pressure, kPa = 101
Fixed: Mole fraction of methanol = 0
Property: Activity coefficient of methanol (Liquid); method: dilutor technique
Temperature, K	Activity coefficient of methanol	uncertainty
303.15	.537	.013425
313.15	.419	.010475
323.15	.406	.01015
333.15	.41	.01025
343.15	.389	.009725
353.15	.339	.008475

System: ethanol + 1-ethyl-3-methylimidazolium ethyl sulfate; phases: Liquid
Fixed: Pressure, kPa = 101
Fixed: Mole fraction of ethanol = 0
Property: Activity coefficient of ethanol (Liquid); method: dilutor technique
Temperature, K	Activity coefficient of ethanol	uncertainty
303.15	.866	.02165
313.15	.783	.019575
323.15	.703	.017575
333.15	.6	.015
343.15	.554	.01385
353.15	.534	.01335

System: ethanol + 1-ethyl-3-methylimidazolium ethyl sulfate; phases: Liquid, Gas
Fixed: Temperature, K = 353.15
Property: Vapor or sublimation pressure, kPa (Liquid); method: Closed cell (Static) method
Mole fraction of ethanol	Vapor or sublimation pressure, kPa	uncertainty
.0134	.9917	.00009917
.0321	2.1193	.00021193
.0583	3.83	.000383
.0913	6.117	.0006117
.1294	8.883	.0008883
.1732	12.149	.0012149
.2288	16.507	.0016507
.2957	22.133	.0022133
.3735	29.218	.0029218
.4551	37.385	.0037385
.5339	46.114	.0046114
.6072	55.101	.0055101
.6726	63.899	.0063899
.7289	71.979	.0071979
.7779	79.364	.0079364
.8023	83.421	.0083421
.8426	89.186	.0089186
.8779	94.052	.0094052
.9079	97.933	.0097933
.9324	100.87	.010087
.952	103.04	.010304
.967	104.58	.010458
.9776	105.64	.010564
.985	106.36	.010636
.9901	106.86	.010686
.9935	107.21	.010721
.996	107.46	.010746
.9978	107.65	.010765
.9991	107.8	.01078
1	107.88	.010788

System: ethanol + 1-ethyl-3-methylimidazolium ethyl sulfate; phases: Liquid
Fixed: Pressure, kPa = 101
Fixed: Temperature, K = 353.15
Property: Excess molar enthalpy (molar enthalpy of mixing), kJ/mol (Liquid); method: Flow calorimetry
Mole fraction of ethanol	Excess molar enthalpy (molar enthalpy of mixing), kJ/mol	uncertainty
.0627	.108568	.00108568
.1063	.186545	.00186545
.1471	.26628	.0026628
.1979	.353452	.00353452
.267	.457468	.00457468
.3288	.574238	.00574238
.4017	.700394	.00700394
.4504	.757638	.00757638
.548	.862757	.00862757
.6281	.915325	.00915325
.7203	.916008	.00916008
.7937	.856199	.00856199
.8535	.729843	.00729843
.9032	.545224	.00545224
.9412	.344365	.00344365
.9776	.136931	.00136931

System: 1-propanol + 1-ethyl-3-methylimidazolium ethyl sulfate; phases: Liquid
Fixed: Pressure, kPa = 101
Fixed: Mole fraction of 1-propanol = 0
Property: Activity coefficient of 1-propanol (Liquid); method: dilutor technique
Temperature, K	Activity coefficient of 1-propanol	uncertainty
303.15	1.306	.03265
313.15	1.204	.0301
323.15	1.029	.025725
333.15	.914	.02285
343.15	.855	.021375
353.15	.803	.020075

System: 1-propanol + 1-ethyl-3-methylimidazolium ethyl sulfate; phases: Liquid, Gas
Fixed: Temperature, K = 353.15
Property: Vapor or sublimation pressure, kPa (Liquid); method: Closed cell (Static) method
Mole fraction of 1-propanol	Vapor or sublimation pressure, kPa	uncertainty
.0076	.4045	.00004045
.0221	1.0022	.00010022
.0379	1.658	.0001658
.0618	2.671	.0002671
.0915	3.962	.0003962
.13	5.647	.0005647
.1792	7.784	.0007784
.2387	10.418	.0010418
.3107	13.603	.0013603
.3891	17.133	.0017133
.4679	20.789	.0020789
.5438	24.585	.0024585
.6137	28.403	.0028403
.6757	32.119	.0032119
.6912	33.36	.003336
.7311	35.716	.0035716
.7426	36.228	.0036228
.7888	38.933	.0038933
.8303	41.435	.0041435
.8667	43.615	.0043615
.8974	45.372	.0045372
.923	46.723	.0046723
.9432	47.703	.0047703
.9585	48.376	.0048376
.9699	48.853	.0048853
.9779	49.153	.0049153
.9841	49.38	.004938
.9893	49.573	.0049573
.9918	49.648	.0049648
1	50.075	.0050075

System: 2-propanol + 1-ethyl-3-methylimidazolium ethyl sulfate; phases: Liquid
Fixed: Pressure, kPa = 101
Fixed: Mole fraction of 2-propanol = 0
Property: Activity coefficient of 2-propanol (Liquid); method: dilutor technique
Temperature, K	Activity coefficient of 2-propanol	uncertainty
303.15	1.477	.036925
313.15	1.307	.032675
323.15	1.247	.031175
333.15	1.043	.026075
343.15	1.008	.0252
353.15	.966	.02415

System: 1-butanol + 1-ethyl-3-methylimidazolium ethyl sulfate; phases: Liquid
Fixed: Pressure, kPa = 101
Fixed: Mole fraction of 1-butanol = 0
Property: Activity coefficient of 1-butanol (Liquid); method: dilutor technique
Temperature, K	Activity coefficient of 1-butanol	uncertainty
313.15	1.934	.04835
323.15	1.651	.041275
333.15	1.386	.03465
343.15	1.367	.034175
353.15	1.187	.029675

System: 2-butanol + 1-ethyl-3-methylimidazolium ethyl sulfate; phases: Liquid
Fixed: Pressure, kPa = 101
Fixed: Mole fraction of 2-butanol = 0
Property: Activity coefficient of 2-butanol (Liquid); method: dilutor technique
Temperature, K	Activity coefficient of 2-butanol	uncertainty
303.15	2.065	.051625
313.15	1.829	.045725
323.15	1.686	.04215
333.15	1.565	.039125
343.15	1.618	.04045
353.15	1.394	.03485

System: methanol + 1-ethyl-3-methylimidazolium methylsulfate; phases: Liquid
Fixed: Pressure, kPa = 101
Fixed: Mole fraction of methanol = 0
Property: Activity coefficient of methanol (Liquid); method: dilutor technique
Temperature, K	Activity coefficient of methanol	uncertainty
323.15	.257	.006425
333.15	.203	.005075
343.15	.178	.00445
353.15	.105	.002625

System: ethanol + 1-ethyl-3-methylimidazolium methylsulfate; phases: Liquid
Fixed: Pressure, kPa = 101
Fixed: Mole fraction of ethanol = 0
Property: Activity coefficient of ethanol (Liquid); method: dilutor technique
Temperature, K	Activity coefficient of ethanol	uncertainty
323.15	.449	.011225
333.15	.398	.00995
343.15	.349	.008725
353.15	.303	.007575

System: ethanol + 1-ethyl-3-methylimidazolium methylsulfate; phases: Liquid
Fixed: Pressure, kPa = 101
Fixed: Temperature, K = 353.15
Property: Excess molar enthalpy (molar enthalpy of mixing), kJ/mol (Liquid); method: Flow calorimetry
Mole fraction of ethanol	Excess molar enthalpy (molar enthalpy of mixing), kJ/mol	uncertainty
.0977	.138119	.00138119
.1834	.254558	.00254558
.249	.349215	.00349215
.3794	.559328	.00559328
.5247	.772677	.00772677
.6059	.860741	.00860741
.701	.910446	.00910446
.7779	.87616	.0087616
.8414	.767138	.00767138
.8947	.587177	.00587177
.9358	.380591	.00380591
.9754	.159355	.00159355

System: 1-propanol + 1-ethyl-3-methylimidazolium methylsulfate; phases: Liquid
Fixed: Pressure, kPa = 101
Fixed: Mole fraction of 1-propanol = 0
Property: Activity coefficient of 1-propanol (Liquid); method: dilutor technique
Temperature, K	Activity coefficient of 1-propanol	uncertainty
323.15	1.053	.026325
333.15	.975	.024375
343.15	.839	.020975
353.15	.705	.017625

System: 2-propanol + 1-ethyl-3-methylimidazolium methylsulfate; phases: Liquid
Fixed: Pressure, kPa = 101
Fixed: Mole fraction of 2-propanol = 0
Property: Activity coefficient of 2-propanol (Liquid); method: dilutor technique
Temperature, K	Activity coefficient of 2-propanol	uncertainty
323.15	1.334	.03335
333.15	1.172	.0293
343.15	1.006	.02515
353.15	.84	.021

System: 1-butanol + 1-ethyl-3-methylimidazolium methylsulfate; phases: Liquid
Fixed: Pressure, kPa = 101
Fixed: Mole fraction of 1-butanol = 0
Property: Activity coefficient of 1-butanol (Liquid); method: dilutor technique
Temperature, K	Activity coefficient of 1-butanol	uncertainty
323.15	2.617	.065425
333.15	2.403	.060075
343.15	2.046	.05115
353.15	1.744	.0436

System: 2-butanol + 1-ethyl-3-methylimidazolium methylsulfate; phases: Liquid
Fixed: Pressure, kPa = 101
Fixed: Mole fraction of 2-butanol = 0
Property: Activity coefficient of 2-butanol (Liquid); method: dilutor technique
Temperature, K	Activity coefficient of 2-butanol	uncertainty
323.15	4.017	.100425
333.15	3.109	.077725
343.15	2.576	.0644
353.15	2.243	.056075

System: methanol + 1-ethyl-3-methylimidazolium hydrogen sulfate; phases: Liquid
Fixed: Pressure, kPa = 101
Fixed: Mole fraction of methanol = 0
Property: Activity coefficient of methanol (Liquid); method: dilutor technique
Temperature, K	Activity coefficient of methanol	uncertainty
323.15	.087	.002175
333.15	.078	.00195
343.15	.058	.00145
353.15	.041	.001025

System: ethanol + 1-ethyl-3-methylimidazolium hydrogen sulfate; phases: Liquid
Fixed: Pressure, kPa = 101
Fixed: Mole fraction of ethanol = 0
Property: Activity coefficient of ethanol (Liquid); method: dilutor technique
Temperature, K	Activity coefficient of ethanol	uncertainty
313.15	.426	.01065
323.15	.269	.006725
333.15	.177	.004425
343.15	.13	.00325
353.15	.116	.0029

System: 1-propanol + 1-ethyl-3-methylimidazolium hydrogen sulfate; phases: Liquid
Fixed: Pressure, kPa = 101
Fixed: Mole fraction of 1-propanol = 0
Property: Activity coefficient of 1-propanol (Liquid); method: dilutor technique
Temperature, K	Activity coefficient of 1-propanol	uncertainty
323.15	.431	.010775
333.15	.338	.00845
343.15	.233	.005825
353.15	.196	.0049

System: 2-propanol + 1-ethyl-3-methylimidazolium hydrogen sulfate; phases: Liquid
Fixed: Pressure, kPa = 101
Fixed: Mole fraction of 2-propanol = 0
Property: Activity coefficient of 2-propanol (Liquid); method: dilutor technique
Temperature, K	Activity coefficient of 2-propanol	uncertainty
323.15	.577	.014425
333.15	.356	.0089
343.15	.278	.00695
353.15	.223	.005575

System: 1-butanol + 1-ethyl-3-methylimidazolium hydrogen sulfate; phases: Liquid
Fixed: Pressure, kPa = 101
Fixed: Mole fraction of 1-butanol = 0
Property: Activity coefficient of 1-butanol (Liquid); method: dilutor technique
Temperature, K	Activity coefficient of 1-butanol	uncertainty
323.15	.758	.01895
333.15	.62	.0155
343.15	.43	.01075

System: 2-butanol + 1-ethyl-3-methylimidazolium hydrogen sulfate; phases: Liquid
Fixed: Pressure, kPa = 101
Fixed: Mole fraction of 2-butanol = 0
Property: Activity coefficient of 2-butanol (Liquid); method: dilutor technique
Temperature, K	Activity coefficient of 2-butanol	uncertainty
323.15	1.219	.030475
333.15	.76	.019
343.15	.566	.01415
353.15	.452	.0113
