Measured thermophysical data. Tris(2-ethylhexyl) trimellitate (TOTM) a potential reference fluid for high viscosity. Part I: Viscosity measurements at temperatures from (303 to 373) K and pressures up to 65 MPa, using a novel vibrating-wire instrument
Source: Fluid Phase Equilib., 2014, 10.1016/j.fluid.2014.10.002
Compound 1: Tris(2-ethylhexyl) trimellitate, C33H54O6, purity 99%

System: Tris(2-ethylhexyl) trimellitate; phases: Liquid
Property: Viscosity, Pa*s (Liquid); method: Vibrating wire viscometry
Temperature, K	Pressure, kPa	Viscosity, Pa*s	uncertainty
303.15	1080	.1589	.0026
303.15	1030	.1584	.0026
303.15	980	.1585	.0026
303.16	2820	.165	.0026
303.16	2850	.1651	.0026
303.16	2850	.1657	.0026
303.16	5130	.1738	.0026
303.16	5130	.1736	.0026
303.16	5130	.1738	.0026
303.16	5120	.1743	.0026
303.16	5130	.1734	.0026
303.16	7680	.1833	.0026
303.16	7680	.1839	.0026
303.16	7690	.1838	.0026
303.16	7680	.1838	.0026
303.16	7680	.1836	.0026
303.16	9880	.1941	.0026
303.16	9850	.1939	.0026
303.16	9830	.1939	.0026
303.15	15060	.2206	.0026
303.15	15060	.2202	.0026
303.16	20010	.2438	.0026
303.16	19990	.2428	.0026
303.16	19980	.2428	.0026
303.16	19950	.2426	.0026
303.15	29820	.3031	.003
303.15	29810	.3024	.003
303.16	29820	.3035	.003
303.15	29810	.3021	.003
303.16	29820	.3038	.003
303.16	29830	.3023	.003
303.16	40170	.3705	.003
303.16	40170	.3731	.003
303.16	40180	.3732	.003
303.16	40180	.3695	.003
303.16	40160	.3698	.003
303.16	40170	.3709	.003
303.17	50400	.4638	.003
303.17	50400	.462	.003
303.17	50400	.46	.003
303.17	50390	.4622	.003
303.17	50400	.4621	.003
313.16	1230	.08798	.0026
313.16	1220	.08778	.0026
313.16	1320	.08762	.0026
313.16	1310	.08802	.0026
313.16	1320	.08755	.0026
313.17	2780	.09059	.0026
313.17	2800	.0903	.0026
313.17	2790	.09029	.0026
313.17	2780	.0906	.0026
313.17	2790	.09054	.0026
313.16	2780	.09052	.0026
313.16	5190	.09626	.0026
313.16	5210	.09579	.0026
313.16	5170	.09624	.0026
313.17	5170	.0959	.0026
313.16	5160	.09614	.0026
313.16	7790	.1013	.0026
313.16	7710	.1016	.0026
313.16	7780	.1017	.0026
313.16	7780	.1019	.0026
313.16	7780	.1014	.0026
313.16	14820	.1174	.0026
313.16	14800	.1176	.0026
313.17	14770	.117	.0026
313.17	20060	.132	.0026
313.16	20040	.1324	.0026
313.16	20060	.1316	.0026
313.16	20050	.1316	.0026
313.16	29970	.1602	.0026
313.16	29930	.1598	.0026
373.17	7500	.01003	.002
313.17	29940	.1595	.0026
313.16	29980	.1598	.0026
313.16	29970	.1602	.0026
313.16	29930	.1598	.0026
313.17	29940	.1595	.0026
313.16	29980	.1598	.0026
313.16	39980	.197	.0026
313.16	40020	.1966	.0026
313.16	40000	.1969	.0026
313.16	39960	.1974	.0026
313.16	50090	.2393	.0026
313.16	50080	.2396	.0026
313.16	50070	.2395	.0026
313.16	50040	.2403	.0026
313.16	50040	.2394	.0026
313.16	50020	.2391	.0026
313.16	65470	.3175	.003
313.16	65440	.3198	.003
313.16	65470	.3175	.003
313.16	65430	.319	.003
313.16	65420	.3178	.003
328.16	1000	.04166	.002
328.16	1030	.04161	.002
328.16	1030	.04182	.002
328.16	1050	.04176	.002
328.15	2520	.04329	.002
328.16	2520	.04323	.002
328.15	2490	.04318	.002
328.16	2530	.04331	.002
328.16	2510	.0432	.002
328.16	5130	.04573	.002
328.16	5100	.04573	.002
328.16	5140	.04567	.002
328.15	5120	.04581	.002
328.16	5100	.04569	.002
328.16	5130	.04572	.002
328.15	7540	.04759	.002
328.15	7550	.04768	.002
328.15	7560	.04766	.002
328.16	7580	.04776	.002
328.15	10430	.05081	.002
328.15	10410	.05091	.002
328.16	10410	.05074	.002
328.16	10400	.05084	.002
328.16	10390	.05078	.002
328.16	10400	.05082	.002
328.15	15140	.05566	.002
328.16	15130	.05562	.002
328.16	15110	.05552	.002
328.16	15100	.05571	.002
328.16	15100	.05571	.002
328.15	20020	.06075	.002
328.15	20040	.06075	.002
328.15	20040	.06087	.002
328.16	20020	.06083	.002
328.16	20030	.06093	.002
328.16	30420	.0744	.0026
328.15	30410	.07465	.0026
328.15	30400	.07444	.0026
328.15	30420	.07452	.0026
328.15	50080	.1058	.0026
328.15	50070	.1059	.0026
328.15	50050	.1057	.0026
328.15	50040	.1055	.0026
328.15	50040	.1057	.0026
328.16	50040	.1055	.0026
328.15	50030	.1058	.0026
328.15	50030	.1055	.0026
328.15	50030	.1059	.0026
328.16	65490	.1396	.0026
328.15	65530	.1396	.0026
328.16	40570	.08915	.0026
373.18	20290	.0123	.002
328.16	40590	.0891	.0026
328.15	40610	.08947	.0026
328.16	40620	.08925	.0026
343.15	1040	.02281	.002
343.15	1050	.02274	.002
343.15	1090	.02281	.002
343.15	1060	.02278	.002
343.15	1070	.02274	.002
343.14	1080	.02275	.002
343.15	2540	.02348	.002
343.15	2580	.02342	.002
343.15	2540	.02348	.002
343.15	2540	.0234	.002
343.15	4800	.02449	.002
343.15	4900	.02444	.002
343.15	4900	.02452	.002
343.15	4900	.02443	.002
343.15	4880	.02444	.002
343.15	4820	.02451	.002
343.15	7530	.02582	.002
343.15	7590	.02576	.002
343.15	7630	.02578	.002
343.15	7650	.02577	.002
343.14	10140	.0271	.002
343.15	10140	.02708	.002
343.14	10150	.02711	.002
343.14	10150	.02707	.002
343.14	10150	.02711	.002
343.15	15090	.02974	.002
343.15	15070	.02973	.002
343.15	15060	.02974	.002
343.15	15050	.02964	.002
343.15	15040	.02965	.002
343.15	15040	.02963	.002
343.14	19930	.03241	.002
343.14	19920	.03238	.002
343.14	19910	.03245	.002
343.14	19900	.03235	.002
343.14	19890	.03241	.002
343.14	19900	.03243	.002
343.14	30250	.03867	.002
343.14	30260	.03859	.002
343.14	30250	.03863	.002
343.14	30240	.03859	.002
343.14	30250	.0386	.002
343.14	40280	.04591	.002
343.14	40270	.04589	.002
343.14	40270	.04583	.002
343.14	40260	.04594	.002
343.14	40260	.04594	.002
343.14	49870	.05382	.002
343.14	49870	.05379	.002
343.14	49840	.05372	.002
343.14	49860	.05379	.002
343.14	49840	.05382	.002
343.14	65100	.06838	.002
343.14	65080	.06837	.002
343.14	65070	.06822	.002
343.14	65060	.06825	.002
343.14	65050	.06846	.002
343.14	50340	.05374	.002
343.14	50360	.05381	.002
343.14	50360	.05395	.002
343.14	50360	.05391	.002
343.14	50350	.05388	.002
358.19	1290	.01379	.002
358.19	1330	.01379	.002
358.19	1380	.01385	.002
358.18	2530	.01414	.002
358.18	2460	.01415	.002
373.18	50280	.01918	.002
358.18	2500	.01416	.002
358.18	2490	.01411	.002
358.18	2480	.01411	.002
358.18	2470	.01413	.002
358.18	4920	.01469	.002
358.18	4860	.01468	.002
358.18	4960	.01464	.002
358.18	4840	.01465	.002
358.18	4990	.01464	.002
358.18	7420	.01537	.002
358.18	7420	.01538	.002
358.18	7410	.01534	.002
358.18	7360	.01535	.002
358.18	7370	.01537	.002
358.18	7390	.01535	.002
358.18	10350	.01611	.002
358.18	10380	.01612	.002
358.18	10410	.01611	.002
358.19	10470	.01613	.002
358.18	15320	.01752	.002
358.19	15340	.01751	.002
358.19	15360	.01751	.002
358.19	15370	.01752	.002
358.19	15390	.01753	.002
358.19	15410	.01754	.002
358.18	20130	.01905	.002
358.18	20120	.01899	.002
358.18	20070	.01903	.002
358.18	20090	.01899	.002
358.18	20050	.01899	.002
358.18	20070	.01897	.002
358.19	30310	.02242	.002
358.19	30380	.02243	.002
358.19	30360	.0224	.002
358.19	30380	.02247	.002
358.19	30380	.02246	.002
358.18	40290	.02624	.002
358.18	40280	.02621	.002
358.18	40260	.02624	.002
358.18	40250	.02627	.002
358.18	40240	.02625	.002
358.19	50360	.03062	.002
358.19	50420	.03065	.002
358.19	50380	.03063	.002
358.19	50390	.03061	.002
358.19	50400	.03065	.002
358.19	65540	.03826	.002
358.19	65550	.03823	.002
358.19	65570	.03828	.002
358.19	65600	.03823	.002
358.19	65610	.03823	.002
373.17	1080	.00899	.002
373.17	1070	.008988	.002
373.17	1070	.008981	.002
373.17	1070	.008984	.002
373.17	1070	.008981	.002
373.18	2500	.009245	.002
373.18	2470	.009234	.002
373.18	2460	.009209	.002
373.18	2470	.009234	.002
373.18	2460	.009224	.002
373.18	2460	.009213	.002
373.17	2690	.009227	.002
373.18	2710	.009252	.002
373.17	2720	.009242	.002
373.17	2730	.009241	.002
373.17	5140	.009653	.002
373.17	5130	.009669	.002
373.17	5120	.009651	.002
373.17	5110	.009649	.002
373.17	5110	.009654	.002
373.17	5100	.009651	.002
373.17	7480	.01003	.002
373.17	7480	.01003	.002
373.17	7470	.01005	.002
373.17	7440	.01006	.002
373.17	10450	.01057	.002
373.18	10460	.01056	.002
373.17	10430	.01053	.002
373.18	10440	.01057	.002
373.18	10450	.01052	.002
373.17	15160	.01129	.002
373.17	15180	.01128	.002
373.17	15210	.01132	.002
373.17	15210	.01132	.002
373.17	15210	.01133	.002
373.17	15210	.01127	.002
373.18	20320	.01228	.002
373.18	20250	.01227	.002
373.18	20270	.01229	.002
373.18	20260	.01227	.002
373.18	20250	.01226	.002
373.18	30030	.01428	.002
373.18	30030	.01428	.002
373.18	29980	.01431	.002
373.18	30010	.0143	.002
373.18	30000	.01427	.002
373.18	29990	.01432	.002
373.18	40190	.01664	.002
373.18	40170	.01661	.002
373.18	40140	.01657	.002
373.18	40150	.01663	.002
373.18	40130	.01658	.002
373.18	50320	.01923	.002
373.18	50310	.01917	.002
373.18	50290	.01921	.002
373.18	50290	.01923	.002
373.18	65370	.02368	.002
373.18	65350	.02372	.002
373.18	65330	.0237	.002
373.17	65290	.02371	.002

System: Tris(2-ethylhexyl) trimellitate; phases: Liquid
Fixed: Pressure, kPa = 101.325
Property: Viscosity, Pa*s (Liquid); method: Capillary tube (Ostwald; Ubbelohde) method
Temperature, K	Viscosity, Pa*s	uncertainty
303.17	.1539	.0023085
313.18	.08637	.00129555
323.1	.05241	.00078615
328.06	.04171	.00062565
