Measured thermophysical data. Thermodynamic behaviour of second generation biofuels: Vapour liquid equilibria and excess enthalpies of the binary mixtures 2-pentanol and n-heptane or 2,2,4-trimethylpentane
Source: Fluid Phase Equilib., 2014, 10.1016/j.fluid.2014.10.016
Compound 1: 2-pentanol, C5H12O, purity 99.7%
Compound 2: 2,2,4-trimethylpentane, C8H18, purity 99.7%
Compound 3: n-heptane, C7H16, purity 99.7%

System: 2-pentanol; phases: Liquid, Gas
Property: Vapor or sublimation pressure, kPa (Liquid); method: Closed cell (Static) method
Temperature, K	Vapor or sublimation pressure, kPa	uncertainty
313.15	2.295	.005

System: 2,2,4-trimethylpentane; phases: Liquid, Gas
Property: Vapor or sublimation pressure, kPa (Liquid); method: Closed cell (Static) method
Temperature, K	Vapor or sublimation pressure, kPa	uncertainty
313.15	12.973	.005

System: n-heptane; phases: Liquid, Gas
Property: Vapor or sublimation pressure, kPa (Liquid); method: Closed cell (Static) method
Temperature, K	Vapor or sublimation pressure, kPa	uncertainty
313.15	12.311	.005

System: 2,2,4-trimethylpentane + 2-pentanol; phases: Gas, Liquid
Fixed: Temperature, K = 313.15
Property: Mole fraction of 2-pentanol (Gas); method: Mass balance
Mole fraction of 2-pentanol	Mole fraction of 2-pentanol	uncertainty
0	0	.0005
.0499	.056	.0005
.0988	.074	.0005
.149	.0839	.0005
.1996	.0917	.0005
.2501	.0991	.0005
.2999	.1063	.0005
.3501	.1134	.0005
.4002	.1205	.0005
.4006	.1205	.0005
.45	.1276	.0005
.4506	.1277	.0005
.5001	.1352	.0005
.5008	.1353	.0005
.5502	.1436	.0005
.5509	.1438	.0005
.6001	.1533	.0005
.6007	.1535	.0005
.6508	.1652	.0005
.7008	.1797	.0005
.7512	.1987	.0005
.8012	.2248	.0005
.8513	.2642	.0005
.9009	.3314	.0005
.9501	.4749	.0005
1	1	.0005

System: 2,2,4-trimethylpentane + 2-pentanol; phases: Liquid, Gas
Fixed: Temperature, K = 313.15
Property: Vapor or sublimation pressure, kPa (Liquid); method: Closed cell (Static) method
Mole fraction of 2-pentanol	Vapor or sublimation pressure, kPa	uncertainty
0	12.973	.005
.0499	13.256	.005
.0988	13.231	.005
.149	13.162	.005
.1996	13.041	.005
.2501	12.904	.005
.2999	12.694	.005
.3501	12.526	.005
.4002	12.32	.005
.4006	12.288	.005
.45	12.059	.005
.4506	12.054	.005
.5001	11.784	.005
.5008	11.787	.005
.5502	11.461	.005
.5509	11.463	.005
.6001	11.058	.005
.6007	11.085	.005
.6508	10.636	.005
.7008	10.11	.005
.7512	9.449	.005
.8012	8.64	.005
.8513	7.612	.005
.9009	6.302	.005
.9501	4.596	.005
1	2.305	.005

System: 2,2,4-trimethylpentane + 2-pentanol; phases: Liquid
Fixed: Pressure, kPa = 101
Property: Excess molar enthalpy (molar enthalpy of mixing), kJ/mol (Liquid); method: Flow calorimetry
Temperature, K	Mole fraction of 2-pentanol	Excess molar enthalpy (molar enthalpy of mixing), kJ/mol	uncertainty
298.15	0	0	0
298.15	.0507	.47649	.00238245
298.15	.0997	.64378	.0032189
298.15	.1498	.72578	.0036289
298.15	.2009	.79491	.00397455
298.15	.25	.84717	.00423585
298.15	.3022	.89211	.00446055
298.15	.3503	.92154	.0046077
298.15	.4011	.95103	.00475515
298.15	.4521	.95855	.00479275
298.15	.5011	.95631	.00478155
298.15	.5521	.92147	.00460735
298.15	.601	.87926	.0043963
298.15	.6517	.81859	.00409295
298.15	.7019	.74068	.0037034
298.15	.7517	.6467	.0032335
298.15	.8009	.53684	.0026842
298.15	.851	.41734	.0020867
298.15	.9002	.28308	.0014154
298.15	.95	.14144	.0007072
298.15	1	0	0
313.15	0	0	0
313.15	.0507	.60962	.0030481
313.15	.0998	.82209	.00411045
313.15	.1499	.93751	.00468755
313.15	.2009	1.01671	.00508355
313.15	.2499	1.07855	.00539275
313.15	.3023	1.12063	.00560315
313.15	.3502	1.13381	.00566905
313.15	.401	1.14337	.00571685
313.15	.452	1.13647	.00568235
313.15	.501	1.11782	.0055891
313.15	.552	1.08631	.00543155
313.15	.601	1.0359	.0051795
313.15	.6516	.96446	.0048223
313.15	.7018	.88326	.0044163
313.15	.7516	.77481	.00387405
313.15	.8008	.65989	.00329945
313.15	.851	.512	.00256
313.15	.9002	.35782	.0017891
313.15	.95	.18465	.00092325
313.15	1	0	0

System: n-heptane + 2-pentanol; phases: Gas, Liquid
Fixed: Temperature, K = 313.15
Property: Mole fraction of 2-pentanol (Gas); method: Mass balance
Mole fraction of 2-pentanol	Mole fraction of 2-pentanol	uncertainty
0	0	.0005
.0493	.0593	.0005
.0991	.0776	.0005
.1491	.087	.0005
.1989	.0946	.0005
.249	.102	.0005
.2991	.1094	.0005
.349	.1168	.0005
.399	.1243	.0005
.399	.1243	.0005
.449	.1318	.0005
.4491	.1319	.0005
.499	.1398	.0005
.4991	.1399	.0005
.5491	.1487	.0005
.5493	.1487	.0005
.5991	.1589	.0005
.5994	.159	.0005
.6494	.1713	.0005
.6995	.1866	.0005
.7499	.2067	.0005
.8	.2342	.0005
.8502	.2755	.0005
.9001	.346	.0005
.9504	.4972	.0005
1	1	.0005

System: n-heptane + 2-pentanol; phases: Liquid, Gas
Fixed: Temperature, K = 313.15
Property: Vapor or sublimation pressure, kPa (Liquid); method: Closed cell (Static) method
Mole fraction of 2-pentanol	Vapor or sublimation pressure, kPa	uncertainty
0	12.311	.005
.0493	12.656	.005
.0991	12.656	.005
.1491	12.573	.005
.1989	12.464	.005
.249	12.339	.005
.2991	12.181	.005
.349	11.993	.005
.399	11.785	.005
.399	11.797	.005
.449	11.534	.005
.4491	11.554	.005
.499	11.248	.005
.4991	11.291	.005
.5491	10.959	.005
.5493	10.979	.005
.5991	10.602	.005
.5994	10.615	.005
.6494	10.188	.005
.6995	9.678	.005
.7499	8.995	.005
.8	8.269	.005
.8502	7.292	.005
.9001	6.007	.005
.9504	4.392	.005
1	2.296	.005

System: n-heptane + 2-pentanol; phases: Liquid
Fixed: Pressure, kPa = 101
Property: Excess molar enthalpy (molar enthalpy of mixing), kJ/mol (Liquid); method: Flow calorimetry
Temperature, K	Mole fraction of 2-pentanol	Excess molar enthalpy (molar enthalpy of mixing), kJ/mol	uncertainty
298.15	0	0	0
298.15	.0505	.48903	.00244515
298.15	.0997	.63023	.00315115
298.15	.1477	.72531	.00362655
298.15	.1969	.79545	.00397725
298.15	.2472	.84875	.00424375
298.15	.2962	.88204	.0044102
298.15	.346	.91692	.0045846
298.15	.3967	.93942	.0046971
298.15	.4459	.94997	.00474985
298.15	.4958	.94625	.00473125
298.15	.5463	.9252	.004626
298.15	.5972	.88871	.00444355
298.15	.6466	.83499	.00417495
298.15	.6963	.75917	.00379585
298.15	.748	.6647	.0033235
298.15	.7981	.55404	.0027702
298.15	.8483	.43129	.00215645
298.15	.8985	.2954	.001477
298.15	.9486	.15	.00075
298.15	1	0	0
313.15	0	0	0
313.15	.0504	.61171	.00305855
313.15	.0996	.82547	.00412735
313.15	.1475	.93345	.00466725
313.15	.1967	1.01434	.0050717
313.15	.2469	1.06973	.00534865
313.15	.2956	1.1106	.005553
313.15	.3455	1.1307	.0056535
313.15	.3962	1.1439	.0057195
313.15	.4454	1.14221	.00571105
313.15	.4953	1.13035	.00565175
313.15	.5458	1.09856	.0054928
313.15	.5968	1.05104	.0052552
313.15	.6462	.99258	.0049629
313.15	.6959	.89495	.00447475
313.15	.7477	.79425	.00397125
313.15	.7979	.67284	.0033642
313.15	.8481	.52986	.0026493
313.15	.8984	.36806	.0018403
313.15	.9485	.19287	.00096435
313.15	1	0	0
