Measured thermophysical data. Enthalpies of solution, partial molar volumes and isentropic compressibilities of polycyclic aromatic hydrocarbons in 1-methyl-2-pyrrolidone at 298.15K
Source: Fluid Phase Equilib., 2009, 10.1016/j.fluid.2008.11.006
Compound 1: benzene, C6H6, purity 99.9%
Compound 2: naphthalene, C10H8
Compound 3: anthracene, C14H10
Compound 4: phenanthrene, C14H10
Compound 5: chrysene, C18H12
Compound 6: 1,1'-biphenyl, C12H10
Compound 7: 1,1':2',1''-terphenyl, C18H14
Compound 8: m-terphenyl, C18H14
Compound 9: 1,1':4',1''-terphenyl, C18H14
Compound 10: N-methyl-2-pyrrolidone, C5H9NO

System: N-methyl-2-pyrrolidone; phases: Liquid
Property: Mass density, kg/m3 (Liquid); method: Vibrating tube method
Temperature, K	Pressure, kPa	Mass density, kg/m3	uncertainty
298.15	101.325	1027.99	

System: N-methyl-2-pyrrolidone; phases: Liquid
Property: Speed of sound, m/s (Liquid); method: Sing-around technique in a fixed-path interferometer
Temperature, K	Pressure, kPa	Speed of sound, m/s	uncertainty
298.15	101.325	1545.17	

System: benzene + N-methyl-2-pyrrolidone; phases: Liquid
Fixed: Pressure, kPa = 101
Fixed: Temperature, K = 298.15
Property: Molar enthalpy of solution, kJ/mol (Liquid); method: Calvet calorimetry
Molality, mol/kg of benzene	Molar enthalpy of solution, kJ/mol	uncertainty
.0637	-1.618	
.0639	-1.621	
.0646	-1.568	

System: benzene + N-methyl-2-pyrrolidone; phases: Liquid
Fixed: Pressure, kPa = 101
Fixed: Temperature, K = 298.15
Property: Speed of sound, m/s (Liquid); method: Sing-around technique in a fixed-path interferometer
Molality, mol/kg of benzene	Speed of sound, m/s	uncertainty
.1292	1543.37	
.2866	1540.62	
.3961	1538.75	
.5342	1536.68	
.6726	1534.67	

System: benzene + N-methyl-2-pyrrolidone; phases: Liquid
Fixed: Pressure, kPa = 101
Fixed: Temperature, K = 298.15
Property: Mass density, kg/m3 (Liquid); method: Vibrating tube method
Molality, mol/kg of benzene	Mass density, kg/m3	uncertainty
.1292	1026.46	
.2866	1024.68	
.3961	1023.46	
.5342	1021.94	
.6726	1020.45	

System: naphthalene + N-methyl-2-pyrrolidone; phases: Liquid
Fixed: Pressure, kPa = 101
Fixed: Temperature, K = 298.15
Property: Molar enthalpy of solution, kJ/mol (Liquid); method: Calvet calorimetry
Molality, mol/kg of naphthalene	Molar enthalpy of solution, kJ/mol	uncertainty
.0903	12.85	
.0904	12.85	

System: naphthalene + N-methyl-2-pyrrolidone; phases: Liquid
Fixed: Pressure, kPa = 101
Fixed: Temperature, K = 298.15
Property: Speed of sound, m/s (Liquid); method: Sing-around technique in a fixed-path interferometer
Molality, mol/kg of naphthalene	Speed of sound, m/s	uncertainty
.0784	1545.85	
.1589	1546.17	
.2424	1546.48	
.3238	1546.82	
.4109	1547.17	

System: naphthalene + N-methyl-2-pyrrolidone; phases: Liquid
Fixed: Pressure, kPa = 101
Fixed: Temperature, K = 298.15
Property: Mass density, kg/m3 (Liquid); method: Vibrating tube method
Molality, mol/kg of naphthalene	Mass density, kg/m3	uncertainty
.0784	1028.27	
.1589	1028.48	
.2424	1028.69	
.3238	1028.89	
.4109	1029.09	

System: anthracene + N-methyl-2-pyrrolidone; phases: Liquid
Fixed: Pressure, kPa = 101
Fixed: Temperature, K = 298.15
Property: Molar enthalpy of solution, kJ/mol (Liquid); method: Calvet calorimetry
Molality, mol/kg of anthracene	Molar enthalpy of solution, kJ/mol	uncertainty
.0371	17.31	
.0392	17.05	

System: anthracene + N-methyl-2-pyrrolidone; phases: Liquid
Fixed: Pressure, kPa = 101
Fixed: Temperature, K = 298.15
Property: Speed of sound, m/s (Liquid); method: Sing-around technique in a fixed-path interferometer
Molality, mol/kg of anthracene	Speed of sound, m/s	uncertainty
.0292	1545.62	
.0558	1546.52	
.1148	1547.74	
.1726	1548.83	
.2334	1550.15	

System: anthracene + N-methyl-2-pyrrolidone; phases: Liquid
Fixed: Pressure, kPa = 101
Fixed: Temperature, K = 298.15
Property: Mass density, kg/m3 (Liquid); method: Vibrating tube method
Molality, mol/kg of anthracene	Mass density, kg/m3	uncertainty
.0292	1028.28	
.0558	1028.73	
.1148	1029.69	
.1726	1030.64	
.2334	1031.59	

System: phenanthrene + N-methyl-2-pyrrolidone; phases: Liquid
Fixed: Pressure, kPa = 101
Fixed: Temperature, K = 298.15
Property: Molar enthalpy of solution, kJ/mol (Liquid); method: Calvet calorimetry
Molality, mol/kg of phenanthrene	Molar enthalpy of solution, kJ/mol	uncertainty
.0545	8.87	
.0573	8.79	

System: phenanthrene + N-methyl-2-pyrrolidone; phases: Liquid
Fixed: Pressure, kPa = 101
Fixed: Temperature, K = 298.15
Property: Speed of sound, m/s (Liquid); method: Sing-around technique in a fixed-path interferometer
Molality, mol/kg of phenanthrene	Speed of sound, m/s	uncertainty
.0283	1545.73	
.057	1546.38	
.114	1547.65	
.1745	1549.21	
.2322	1550.57	

System: phenanthrene + N-methyl-2-pyrrolidone; phases: Liquid
Fixed: Pressure, kPa = 101
Fixed: Temperature, K = 298.15
Property: Mass density, kg/m3 (Liquid); method: Vibrating tube method
Molality, mol/kg of phenanthrene	Mass density, kg/m3	uncertainty
.0283	1028.28	
.057	1028.82	
.114	1029.85	
.1745	1030.92	
.2322	1031.92	

System: chrysene + N-methyl-2-pyrrolidone; phases: Liquid
Property: Molar enthalpy of solution, kJ/mol (Liquid); method: Calvet calorimetry
Molality, mol/kg of chrysene	Pressure, kPa	Temperature, K	Molar enthalpy of solution, kJ/mol	uncertainty
.005	101	298.15	14.01	
.005	101	298.15	13.79	
.005	101	298.15	13.69	

System: chrysene + N-methyl-2-pyrrolidone; phases: Liquid
Fixed: Pressure, kPa = 101
Fixed: Temperature, K = 298.15
Property: Speed of sound, m/s (Liquid); method: Sing-around technique in a fixed-path interferometer
Molality, mol/kg of chrysene	Speed of sound, m/s	uncertainty
.0216	1546.12	
.0367	1546.68	
.0441	1547.16	
.0543	1547.51	
.0667	1548.06	

System: chrysene + N-methyl-2-pyrrolidone; phases: Liquid
Fixed: Pressure, kPa = 101
Fixed: Temperature, K = 298.15
Property: Mass density, kg/m3 (Liquid); method: Vibrating tube method
Molality, mol/kg of chrysene	Mass density, kg/m3	uncertainty
.0216	1028.72	
.0367	1029.29	
.0441	1029.49	
.0543	1029.89	
.0667	1030.3	

System: 1,1'-biphenyl + N-methyl-2-pyrrolidone; phases: Liquid
Fixed: Pressure, kPa = 101
Fixed: Temperature, K = 298.15
Property: Molar enthalpy of solution, kJ/mol (Liquid); method: Calvet calorimetry
Molality, mol/kg of 1,1'-biphenyl	Molar enthalpy of solution, kJ/mol	uncertainty
.053	13.27	
.0599	13.27	

System: 1,1'-biphenyl + N-methyl-2-pyrrolidone; phases: Liquid
Fixed: Pressure, kPa = 101
Fixed: Temperature, K = 298.15
Property: Speed of sound, m/s (Liquid); method: Sing-around technique in a fixed-path interferometer
Molality, mol/kg of 1,1'-biphenyl	Speed of sound, m/s	uncertainty
.0655	1545.92	
.1312	1546.31	
.2087	1547	
.2714	1547.28	
.3413	1547.65	

System: 1,1'-biphenyl + N-methyl-2-pyrrolidone; phases: Liquid
Fixed: Pressure, kPa = 101
Fixed: Temperature, K = 298.15
Property: Mass density, kg/m3 (Liquid); method: Vibrating tube method
Molality, mol/kg of 1,1'-biphenyl	Mass density, kg/m3	uncertainty
.0655	1028.02	
.1312	1028.19	
.2087	1028.41	
.2714	1028.56	
.3413	1028.74	

System: 1,1':2',1''-terphenyl + N-methyl-2-pyrrolidone; phases: Liquid
Fixed: Pressure, kPa = 101
Fixed: Temperature, K = 298.15
Property: Molar enthalpy of solution, kJ/mol (Liquid); method: Calvet calorimetry
Molality, mol/kg of 1,1':2',1''-terphenyl	Molar enthalpy of solution, kJ/mol	uncertainty
.0355	12.27	
.037	12.16	

System: 1,1':2',1''-terphenyl + N-methyl-2-pyrrolidone; phases: Liquid
Fixed: Pressure, kPa = 101
Fixed: Temperature, K = 298.15
Property: Speed of sound, m/s (Liquid); method: Sing-around technique in a fixed-path interferometer
Molality, mol/kg of 1,1':2',1''-terphenyl	Speed of sound, m/s	uncertainty
.0215	1545.46	
.0442	1545.86	
.0665	1546.1	
.0887	1546.36	
.1135	1546.75	

System: 1,1':2',1''-terphenyl + N-methyl-2-pyrrolidone; phases: Liquid
Fixed: Pressure, kPa = 101
Fixed: Temperature, K = 298.15
Property: Mass density, kg/m3 (Liquid); method: Vibrating tube method
Molality, mol/kg of 1,1':2',1''-terphenyl	Mass density, kg/m3	uncertainty
.0215	1028.14	
.0442	1028.45	
.0665	1028.77	
.0887	1029.04	
.1135	1029.39	

System: m-terphenyl + N-methyl-2-pyrrolidone; phases: Liquid
Fixed: Pressure, kPa = 101
Fixed: Temperature, K = 298.15
Property: Molar enthalpy of solution, kJ/mol (Liquid); method: Calvet calorimetry
Molality, mol/kg of m-terphenyl	Molar enthalpy of solution, kJ/mol	uncertainty
.029	14.9	
.0292	14.88	

System: m-terphenyl + N-methyl-2-pyrrolidone; phases: Liquid
Fixed: Pressure, kPa = 101
Fixed: Temperature, K = 298.15
Property: Speed of sound, m/s (Liquid); method: Sing-around technique in a fixed-path interferometer
Molality, mol/kg of m-terphenyl	Speed of sound, m/s	uncertainty
.0212	1545.81	
.0441	1546.7	
.0883	1548.05	
.1349	1549.18	

System: m-terphenyl + N-methyl-2-pyrrolidone; phases: Liquid
Fixed: Pressure, kPa = 101
Fixed: Temperature, K = 298.15
Property: Mass density, kg/m3 (Liquid); method: Vibrating tube method
Molality, mol/kg of m-terphenyl	Mass density, kg/m3	uncertainty
.0212	1028.21	
.0441	1028.6	
.0883	1029.34	
.1349	1030.07	

System: 1,1':4',1''-terphenyl + N-methyl-2-pyrrolidone; phases: Liquid
Fixed: Pressure, kPa = 101
Fixed: Temperature, K = 298.15
Property: Molar enthalpy of solution, kJ/mol (Liquid); method: Calvet calorimetry
Molality, mol/kg of 1,1':4',1''-terphenyl	Molar enthalpy of solution, kJ/mol	uncertainty
.0144	21.06	
.0149	20.91	

System: 1,1':4',1''-terphenyl + N-methyl-2-pyrrolidone; phases: Liquid
Fixed: Pressure, kPa = 101
Fixed: Temperature, K = 298.15
Property: Speed of sound, m/s (Liquid); method: Sing-around technique in a fixed-path interferometer
Molality, mol/kg of 1,1':4',1''-terphenyl	Speed of sound, m/s	uncertainty
.0214	1546.13	
.0355	1546.41	
.0446	1546.78	
.0579	1546.99	
.0913	1547.62	

System: 1,1':4',1''-terphenyl + N-methyl-2-pyrrolidone; phases: Liquid
Fixed: Pressure, kPa = 101
Fixed: Temperature, K = 298.15
Property: Mass density, kg/m3 (Liquid); method: Vibrating tube method
Molality, mol/kg of 1,1':4',1''-terphenyl	Mass density, kg/m3	uncertainty
.0214	1028.36	
.0355	1028.62	
.0446	1028.75	
.0579	1029.01	
.0913	1029.5	
