Measured thermophysical data. Measurement on the solubility of adipic acid in various solvents at high temperature and its  thermodynamics parameters.
Source: Fluid Phase Equilib., 2013, 10.1016/j.fluid.2013.10.003
Compound 1: adipic acid, C6H10O4, purity 99%
Compound 2: acetic acid, C2H4O2, purity 99%
Compound 3: cyclohexanol, C6H12O, purity 95%
Compound 4: cyclohexanone, C6H10O, purity 99%
Compound 5: water, H2O

System: adipic acid + water; phases: Liquid, Crystal
Fixed: Pressure, kPa = 101
Property: Mole fraction of adipic acid (Liquid); method: Chromatography
Temperature, K	Mole fraction of adipic acid	uncertainty
303	.004	
313	.006	
323	.009	
333	.015	
343	.022	
353	.031	
363	.04	
373	.048	
383	.058	
393	.068	
403	.082	

System: acetic acid + adipic acid; phases: Liquid, Crystal
Fixed: Pressure, kPa = 101
Property: Mole fraction of adipic acid (Liquid); method: Chromatography
Temperature, K	Mole fraction of adipic acid	uncertainty
303	.026	
313	.037	
323	.059	
333	.085	
343	.116	
353	.147	
363	.207	
373	.263	
383	.322	

System: acetic acid + adipic acid + water; phases: Liquid, Crystal
Fixed: Pressure, kPa = 101
Fixed: Solvent: Volume fraction of acetic acid = .5
Property: Mole fraction of adipic acid (Liquid); method: Chromatography
Temperature, K	Mole fraction of adipic acid	uncertainty
303	.006	
313	.016	
323	.016	
333	.026	
343	.04	
353	.051	
363	.07	
373	.085	
383	.096	
393	.108	

System: cyclohexanol + adipic acid; phases: Liquid, Crystal
Fixed: Pressure, kPa = 101
Property: Mole fraction of adipic acid (Liquid); method: Chromatography
Temperature, K	Mole fraction of adipic acid	uncertainty
303	.015	
313	.034	
323	.064	
333	.087	
343	.125	
353	.154	
363	.195	
373	.237	
383	.287	
393	.331	

System: cyclohexanone + adipic acid; phases: Liquid, Crystal
Fixed: Pressure, kPa = 101
Property: Mole fraction of adipic acid (Liquid); method: Chromatography
Temperature, K	Mole fraction of adipic acid	uncertainty
303	.013	
313	.019	
323	.032	
333	.049	
343	.074	
353	.1	
363	.136	
373	.178	
383	.214	
393	.252	
