Measured thermophysical data. Liquid-liquid equilibrium for the ternary system isopropenyl acetate + water + acetic acid at 298.2 K, 313.2 K, 323.2 K and 333.2 K
Source: Fluid Phase Equilib., 2011, 10.1016/j.fluid.2011.09.001
Compound 1: 1-methylvinyl ethanoate, C5H8O2, purity 99%
Compound 2: water, H2O, purity 99.8%
Compound 3: ethanoic acid, C2H4O2, purity 99.5%

System: ethanoic acid + 1-methylvinyl ethanoate + water; phases: Liquid mixture 1, Liquid mixture 2
Fixed: Pressure, kPa = 101
Property: Mass fraction of water (Liquid mixture 1); method: Titration method
Temperature, K	Mass fraction of 1-methylvinyl ethanoate	Mass fraction of water	uncertainty
298.15	.9893	.0107	.0004
298.15	.9274	.0258	.0004
298.15	.8638	.0444	.0004
298.15	.8214	.0572	.0004
298.15	.777	.0744	.0004
298.15	.7213	.0987	.0004
298.15	.6504	.1345	.0004
298.15	.5993	.163	.0004
298.15	.5165	.2164	.0004
298.15	.4398	.2736	.0004
298.15	.3716	.3275	.0004
298.15	.3099	.3786	.0004
298.15	.235	.4452	.0004
298.15	.1758	.5133	.0004
298.15	.1323	.5743	.0004
298.15	.0931	.647	.0004
298.15	.0751	.6969	.0004
298.15	.0541	.761	.0004
298.15	.0412	.8294	.0004
298.15	.0312	.8941	.0004
298.15	.0216	.9525	.0004
298.15	.0203	.9797	.0004
313.2	.985	.015	.0004
313.2	.9632	.0196	.0004
313.2	.929	.0295	.0004
313.2	.8766	.0458	.0004
313.2	.8329	.0605	.0004
313.2	.7789	.0784	.0004
313.2	.6483	.1385	.0004
313.2	.5913	.1718	.0004
313.2	.5185	.221	.0004
313.2	.4712	.2558	.0004
313.2	.4206	.2934	.0004
313.2	.3795	.3262	.0004
313.2	.3254	.3726	.0004
313.2	.2608	.43	.0004
313.2	.1864	.5074	.0004
313.2	.1437	.5672	.0004
313.2	.1169	.6112	.0004
313.2	.0862	.6728	.0004
313.2	.0562	.7679	.0004
313.2	.0318	.9025	.0004
313.2	.0211	.97	.0004
313.2	.0213	.9787	.0004
323.2	.9795	.0205	.0004
323.2	.9749	.021	.0004
323.2	.9442	.0303	.0004
323.2	.8816	.0486	.0004
323.2	.8212	.0704	.0004
323.2	.7746	.0874	.0004
323.2	.6982	.1217	.0004
323.2	.5583	.1983	.0004
323.2	.5198	.2244	.0004
323.2	.4363	.2866	.0004
323.2	.3738	.3389	.0004
323.2	.3218	.3839	.0004
323.2	.2829	.4181	.0004
323.2	.2472	.4502	.0004
323.2	.192	.5089	.0004
323.2	.158	.5519	.0004
323.2	.121	.6102	.0004
323.2	.0916	.6675	.0004
323.2	.0663	.7329	.0004
323.2	.0353	.8835	.0004
323.2	.0239	.9701	.0004
323.2	.0241	.9759	.0004
333.2	.9754	.0246	.0004
333.2	.9679	.0274	.0004
333.2	.9208	.0419	.0004
333.2	.8739	.0574	.0004
333.2	.8136	.0792	.0004
333.2	.7854	.089	.0004
333.2	.7462	.104	.0004
333.2	.6842	.1334	.0004
333.2	.6077	.1738	.0004
333.2	.565	.1999	.0004
333.2	.5103	.2375	.0004
333.2	.4147	.3111	.0004
333.2	.3616	.3565	.0004
333.2	.2852	.4247	.0004
333.2	.2214	.486	.0004
333.2	.1724	.5416	.0004
333.2	.1518	.5682	.0004
333.2	.1008	.6546	.0004
333.2	.0635	.7517	.0004
333.2	.0406	.8375	.0004
333.2	.0285	.9372	.0004
333.2	.0223	.9777	.0004

System: ethanoic acid + 1-methylvinyl ethanoate + water; phases: Liquid mixture 1, Liquid mixture 2
Property: Upper consolute composition: mole fraction of water (Liquid mixture 1); method: Estimated from Data
Temperature, K	Mass fraction of 1-methylvinyl ethanoate	Upper consolute composition: mole fraction of water	uncertainty
298.2	.3994	.3051	.0009
313.2	.4169	.2959	.0009
323.2	.3929	.3222	.0009
333.2	.4052	.3189	.0009

System: ethanoic acid + 1-methylvinyl ethanoate + water; phases: Liquid mixture 2, Liquid mixture 1
Fixed: Pressure, kPa = 101
Property: Mass fraction of 1-methylvinyl ethanoate (Liquid mixture 2); method: Chromatography
Property: Mass fraction of 1-methylvinyl ethanoate (Liquid mixture 1); method: Chromatography
Property: Mass fraction of water (Liquid mixture 1); method: Chromatography
Temperature, K	Mass fraction of water	Mass fraction of 1-methylvinyl ethanoate	uncertainty	Mass fraction of 1-methylvinyl ethanoate	uncertainty	Mass fraction of water	uncertainty
298.2	.8977	.0334	.003	.9479	.003	.0248	.003
313.2	.7361	.0636	.003	.8205	.003	.0647	.003
313.2	.6539	.0944	.003	.7367	.003	.0933	.003
313.2	.5259	.1764	.003	.5828	.003	.1798	.003
323.2	.9024	.0291	.003	.9413	.003	.0313	.003
323.2	.8265	.0431	.003	.8743	.003	.0525	.003
323.2	.7546	.0606	.003	.804	.003	.081	.003
323.2	.6857	.0823	.003	.751	.003	.0963	.003
323.2	.6001	.1266	.003	.6496	.003	.149	.003
323.2	.4881	.2091	.003	.5017	.003	.233	.003
333.2	.897	.0278	.003	.9286	.003	.0393	.003
298.2	.8251	.0457	.003	.8927	.003	.0363	.003
333.2	.8179	.0497	.003	.8675	.003	.0609	.003
333.2	.7586	.062	.003	.7879	.003	.0927	.003
333.2	.686	.0876	.003	.7332	.003	.1086	.003
333.2	.5997	.1326	.003	.647	.003	.1533	.003
333.2	.4747	.2303	.003	.5184	.003	.2282	.003
298.2	.752	.0626	.003	.8322	.003	.0558	.003
298.2	.6875	.0819	.003	.7606	.003	.0837	.003
298.2	.6161	.1108	.003	.6642	.003	.1316	.003
298.2	.5286	.1722	.003	.5806	.003	.1753	.003
313.2	.9175	.0277	.003	.9516	.003	.0263	.003
313.2	.8432	.0399	.003	.9059	.003	.0376	.003
313.2	.7825	.0522	.003	.8559	.003	.0513	.003
