Measured thermophysical data. Extraction of toluene from alkane using [Bmim][NO3] or [Omim][NO3] ionic liquid at 298.15 K and atmospheric pressure
Source: Fluid Phase Equilib., 2014, 10.1016/j.fluid.2013.11.020
Compound 1: hexane, C6H14, purity 99%
Compound 2: heptane, C7H16, purity 99%
Compound 3: octane, C8H18, purity 99%
Compound 4: toluene, C7H8, purity 99%
Compound 5: acetone, C3H6O, purity 99%
Compound 6: 1-butyl-3-methylimidazolium nitrate, C8H15N3O3
Compound 7: 1-methyl-3-octylimidazolium nitrate, C12H23N3O3

System: toluene + hexane + 1-butyl-3-methylimidazolium nitrate; phases: Liquid mixture 1, Liquid mixture 2
Fixed: Temperature, K = 298.15
Fixed: Pressure, kPa = 101
Property: Mole fraction of hexane (Liquid mixture 1); method: Chromatography
Property: Mole fraction of toluene (Liquid mixture 2); method: Chromatography
Property: Mole fraction of hexane (Liquid mixture 2); method: Chromatography
Mole fraction of toluene	Mole fraction of hexane	uncertainty	Mole fraction of toluene	uncertainty	Mole fraction of hexane	uncertainty
.168	.832	.003	.06	.001	.008	.001
.807	.193	.003	.226	.001	.008	.001
.356	.644	.003	.0961	.001	.009	.001
.452	.548	.003	.115	.001	.01	.001
.565	.435	.003	.138	.001	.011	.001
.769	.231	.003	.191	.001	.01	.001
.144	.856	.003	.053	.001	.008	.001
.307	.693	.003	.085	.001	.009	.001
.456	.544	.003	.113	.001	.01	.001
.632	.368	.003	.148	.001	.011	.001

System: toluene + heptane + 1-butyl-3-methylimidazolium nitrate; phases: Liquid mixture 2, Liquid mixture 1
Fixed: Temperature, K = 298.15
Fixed: Pressure, kPa = 101
Property: Mole fraction of heptane (Liquid mixture 2); method: Chromatography
Property: Mole fraction of heptane (Liquid mixture 1); method: Chromatography
Property: Mole fraction of toluene (Liquid mixture 1); method: Chromatography
Mole fraction of toluene	Mole fraction of heptane	uncertainty	Mole fraction of heptane	uncertainty	Mole fraction of toluene	uncertainty
.066	.007	.001	.815	.003	.185	.003
.105	.007	.001	.612	.003	.388	.003
.126	.006	.001	.511	.003	.489	.003
.153	.006	.001	.406	.003	.594	.003
.226	.007	.001	.216	.003	.784	.003
.058	.007	.001	.837	.003	.163	.003
.092	.008	.001	.664	.003	.336	.003
.125	.008	.001	.501	.003	.499	.003
.179	.01	.001	.338	.003	.662	.003

System: toluene + octane + 1-butyl-3-methylimidazolium nitrate; phases: Liquid mixture 2, Liquid mixture 1
Fixed: Temperature, K = 298.15
Fixed: Pressure, kPa = 101
Property: Mole fraction of octane (Liquid mixture 2); method: Chromatography
Property: Mole fraction of octane (Liquid mixture 1); method: Chromatography
Property: Mole fraction of toluene (Liquid mixture 1); method: Chromatography
Mole fraction of toluene	Mole fraction of octane	uncertainty	Mole fraction of octane	uncertainty	Mole fraction of toluene	uncertainty
.061	.004	.001	.786	.003	.214	.003
.123	.005	.001	.589	.003	.411	.003
.158	.006	.001	.487	.003	.513	.003
.195	.006	.001	.399	.003	.601	.003
.284	.007	.001	.204	.003	.796	.003
.053	.004	.001	.818	.003	.182	.003
.104	.005	.001	.642	.003	.358	.003
.164	.006	.001	.473	.003	.527	.003
.239	.005	.001	.318	.003	.682	.003

System: toluene + hexane + 1-methyl-3-octylimidazolium nitrate; phases: Liquid mixture 2, Liquid mixture 1
Fixed: Pressure, kPa = 101
Fixed: Temperature, K = 298.15
Property: Mole fraction of hexane (Liquid mixture 2); method: Chromatography
Property: Mole fraction of hexane (Liquid mixture 1); method: Chromatography
Property: Mole fraction of toluene (Liquid mixture 1); method: Chromatography
Mole fraction of toluene	Mole fraction of hexane	uncertainty	Mole fraction of hexane	uncertainty	Mole fraction of toluene	uncertainty
.115	.093	.001	.846	.003	.154	.003
.578	.061	.001	.244	.003	.756	.003
.224	.1	.001	.677	.003	.323	.003
.278	.101	.001	.583	.003	.417	.003
.341	.1	.001	.489	.003	.511	.003
.501	.007	.001	.292	.003	.708	.003
.103	.1	.001	.863	.003	.137	.003
.198	.106	.001	.7	.003	.3	.003
.288	.109	.001	.561	.003	.439	.003
.431	.093	.001	.407	.003	.593	.003

System: toluene + heptane + 1-methyl-3-octylimidazolium nitrate; phases: Liquid mixture 2, Liquid mixture 1
Fixed: Pressure, kPa = 101
Fixed: Temperature, K = 298.15
Property: Mole fraction of heptane (Liquid mixture 2); method: Chromatography
Property: Mole fraction of heptane (Liquid mixture 1); method: Chromatography
Property: Mole fraction of toluene (Liquid mixture 1); method: Chromatography
Mole fraction of toluene	Mole fraction of heptane	uncertainty	Mole fraction of heptane	uncertainty	Mole fraction of toluene	uncertainty
.141	.075	.001	.812	.003	.188	.003
.516	.047	.001	.192	.003	.808	.003
.233	.066	.001	.64	.003	.36	.003
.278	.066	.001	.548	.003	.452	.003
.328	.066	.001	.452	.003	.548	.003
.435	.045	.001	.269	.003	.731	.003
.116	.083	.001	.847	.003	.153	.003
.211	.085	.001	.692	.003	.308	.003
.29	.068	.001	.526	.003	.474	.003
.38	.059	.001	.361	.003	.639	.003

System: toluene + octane + 1-methyl-3-octylimidazolium nitrate; phases: Liquid mixture 1, Liquid mixture 2
Fixed: Temperature, K = 298.15
Fixed: Pressure, kPa = 101
Property: Mole fraction of octane (Liquid mixture 1); method: Chromatography
Property: Mole fraction of toluene (Liquid mixture 2); method: Chromatography
Property: Mole fraction of octane (Liquid mixture 2); method: Chromatography
Mole fraction of toluene	Mole fraction of octane	uncertainty	Mole fraction of toluene	uncertainty	Mole fraction of octane	uncertainty
.176	.824	.003	.117	.001	.06	.001
.814	.186	.003	.525	.001	.04	.001
.358	.642	.003	.233	.001	.058	.001
.454	.546	.003	.287	.001	.058	.001
.548	.452	.003	.338	.001	.054	.001
.756	.244	.003	.463	.001	.043	.001
.161	.839	.003	.107	.001	.061	.001
.315	.685	.003	.201	.001	.062	.001
.484	.516	.003	.292	.001	.054	.001
.649	.351	.003	.392	.001	.05	.001
