Measured thermophysical data. N-butylpyridinium bis-(trifluoromethylsulfonyl)imide ionic liquids as solvents for the liquid-liquid extraction of aromatics from their mixtures with alkanes: isomeric effect of the cation
Source: Fluid Phase Equilib., 2011, 10.1016/j.fluid.2010.11.017
Compound 1: 1-butylpyridinium bis[(trifluoromethyl)sulfonyl]imide, C11H14F6N2O4S2, purity 99.5%
Compound 2: 1-butyl-3-methylpyridinium 1,1,1-trifluoro-N-[(trifluoromethyl)sulfonyl]methanesulfonamide, C12H16F6N2O4S2, purity 99.5%
Compound 3: 1-butyl-2-methylpyridinium bis(trifluoromethylsulfonyl)imide, C12H16F6N2O4S2, purity 99.5%
Compound 4: 1-butyl-4-methylpyridinium bis((trifluoromethyl)sulfonyl)amide, C12H16F6N2O4S2, purity 99.5%
Compound 5: heptane, C7H16, purity 99.5%
Compound 6: toluene, C7H8, purity 99.7%

System: toluene + heptane + 1-butylpyridinium bis[(trifluoromethyl)sulfonyl]imide; phases: Liquid mixture 1, Liquid mixture 2
Property: Mole fraction of heptane (Liquid mixture 1); method: NMR Spectrometry
Property: Mole fraction of toluene (Liquid mixture 2); method: NMR Spectrometry
Property: Mole fraction of heptane (Liquid mixture 2); method: NMR Spectrometry
Temperature, K	Pressure, kPa	Mole fraction of toluene	Mole fraction of heptane	uncertainty	Mole fraction of toluene	uncertainty	Mole fraction of heptane	uncertainty
313.2	101.3	.0218	.9782	.0008	.0312	.0008	.0618	.0008
313.2	101.3	.6272	.3728	.0008	.5802	.0008	.0494	.0008
313.2	101.3	.7441	.2559	.0008	.6401	.0008	.0368	.0008
313.2	101.3	.8129	.1871	.0008	.651	.0008	.0337	.0008
313.2	101.3	.0467	.9533	.0008	.0634	.0008	.0544	.0008
313.2	101.3	.1029	.8971	.0008	.1288	.0008	.0552	.0008
313.2	101.3	.1491	.8509	.0008	.1856	.0008	.0579	.0008
313.2	101.3	.1911	.8089	.0008	.2222	.0008	.0539	.0008
313.2	101.3	.2571	.7429	.0008	.2845	.0008	.0521	.0008
313.2	101.3	.3011	.6989	.0008	.3233	.0008	.0522	.0008
313.2	101.3	.4079	.5921	.0008	.3775	.0008	.0474	.0008
313.2	101.3	.5061	.4939	.0008	.5155	.0008	.0528	.0008

System: toluene + heptane + 1-butyl-2-methylpyridinium bis(trifluoromethylsulfonyl)imide; phases: Liquid mixture 1, Liquid mixture 2
Property: Mole fraction of heptane (Liquid mixture 1); method: NMR Spectrometry
Property: Mole fraction of toluene (Liquid mixture 2); method: NMR Spectrometry
Property: Mole fraction of heptane (Liquid mixture 2); method: NMR Spectrometry
Temperature, K	Pressure, kPa	Mole fraction of toluene	Mole fraction of heptane	uncertainty	Mole fraction of toluene	uncertainty	Mole fraction of heptane	uncertainty
313.2	101.3	.0232	.9768	.0008	.0313	.0008	.0511	.0008
313.2	101.3	.6266	.3734	.0008	.5891	.0008	.0472	.0008
313.2	101.3	.7401	.2599	.0008	.649	.0008	.0364	.0008
313.2	101.3	.8063	.1937	.0008	.6702	.0008	.0309	.0008
313.2	101.3	.0488	.9512	.0008	.0618	.0008	.0571	.0008
313.2	101.3	.1498	.8502	.0008	.1794	.0008	.0527	.0008
313.2	101.3	.1993	.8007	.0008	.2166	.0008	.0517	.0008
313.2	101.3	.2354	.7646	.0008	.2822	.0008	.0541	.0008
313.2	101.3	.2897	.7103	.0008	.3083	.0008	.0465	.0008
313.2	101.3	.3484	.6516	.0008	.3488	.0008	.0488	.0008
313.2	101.3	.3977	.6023	.0008	.3864	.0008	.0486	.0008
313.2	101.3	.5165	.4835	.0008	.5059	.0008	.0494	.0008

System: toluene + heptane + 1-butyl-3-methylpyridinium 1,1,1-trifluoro-N-[(trifluoromethyl)sulfonyl]methanesulfonamide; phases: Liquid mixture 1, Liquid mixture 2
Property: Mole fraction of heptane (Liquid mixture 1); method: NMR Spectrometry
Property: Mole fraction of toluene (Liquid mixture 2); method: NMR Spectrometry
Property: Mole fraction of heptane (Liquid mixture 2); method: NMR Spectrometry
Temperature, K	Pressure, kPa	Mole fraction of toluene	Mole fraction of heptane	uncertainty	Mole fraction of toluene	uncertainty	Mole fraction of heptane	uncertainty
313.2	101.3	.0202	.9798	.0008	.0336	.0008	.0779	.0008
313.2	101.3	.6194	.3806	.0008	.5918	.0008	.069	.0008
313.2	101.3	.7376	.2624	.0008	.6602	.0008	.0461	.0008
313.2	101.3	.8083	.1917	.0008	.6691	.0008	.0407	.0008
313.2	101.3	.0429	.9571	.0008	.0669	.0008	.0674	.0008
313.2	101.3	.095	.905	.0008	.1369	.0008	.07	.0008
313.2	101.3	.1368	.8632	.0008	.1929	.0008	.0703	.0008
313.2	101.3	.1851	.8149	.0008	.2434	.0008	.0755	.0008
313.2	101.3	.2381	.7619	.0008	.2713	.0008	.0611	.0008
313.2	101.3	.2834	.7166	.0008	.3381	.0008	.0692	.0008
313.2	101.3	.3981	.6019	.0008	.3889	.0008	.0584	.0008
313.2	101.3	.5119	.4881	.0008	.5111	.0008	.0629	.0008

System: toluene + heptane + 1-butyl-4-methylpyridinium bis((trifluoromethyl)sulfonyl)amide; phases: Liquid mixture 1, Liquid mixture 2
Property: Mole fraction of heptane (Liquid mixture 1); method: NMR Spectrometry
Property: Mole fraction of toluene (Liquid mixture 2); method: NMR Spectrometry
Property: Mole fraction of heptane (Liquid mixture 2); method: NMR Spectrometry
Temperature, K	Pressure, kPa	Mole fraction of toluene	Mole fraction of heptane	uncertainty	Mole fraction of toluene	uncertainty	Mole fraction of heptane	uncertainty
313.2	101.3	.0186	.9814	.0008	.0339	.0008	.0774	.0008
313.2	101.3	.6068	.3932	.0008	.6056	.0008	.0676	.0008
313.2	101.3	.7237	.2763	.0008	.6715	.0008	.0507	.0008
313.2	101.3	.8059	.1941	.0008	.6866	.0008	.0451	.0008
313.2	101.3	.0399	.9601	.0008	.0688	.0008	.0656	.0008
313.2	101.3	.0903	.9097	.0008	.1366	.0008	.07	.0008
313.2	101.3	.1291	.8709	.0008	.1969	.0008	.0685	.0008
313.2	101.3	.175	.825	.0008	.2412	.0008	.068	.0008
313.2	101.3	.2205	.7795	.0008	.2873	.0008	.0649	.0008
313.2	101.3	.2775	.7225	.0008	.3388	.0008	.062	.0008
313.2	101.3	.3756	.6244	.0008	.4057	.0008	.0695	.0008
313.2	101.3	.4941	.5059	.0008	.5219	.0008	.0663	.0008
