Measured thermophysical data. Solubility of HFCs in lower alcohols
Source: Fluid Phase Equilib., 2011, 10.1016/j.fluid.2011.01.003
Compound 1: methanol, CH4O, purity 99.9%
Compound 2: ethanol, C2H6O, purity 99.8%
Compound 3: 1-propanol, C3H8O, purity 99.5%
Compound 4: 1-butanol, C4H10O, purity 99.5%
Compound 5: fluoromethane, CH3F, purity 99%
Compound 6: difluoromethane, CH2F2, purity 99%
Compound 7: trifluoromethane, CHF3, purity 99%

System: methanol + trifluoromethane; phases: Liquid, Gas
Fixed: Pressure, kPa = 101.325
Property: Mole fraction of trifluoromethane (Liquid); method: Change in the gas volume
Temperature, K	Mole fraction of trifluoromethane	uncertainty
284.15	.03105	.0001863
287.75	.02788	.00016728
291.4	.02645	.0001587
295.28	.02451	.00014706
299.26	.02353	.00014118
303.13	.02323	.00013938
307.11	.02287	.00013722

System: methanol + trifluoromethane; phases: Liquid, Gas
Fixed: Mole fraction of trifluoromethane = 0
Property: Henry's Law constant (mole fraction scale), kPa of trifluoromethane (Liquid); method: Determined from solubility data
Temperature, K	Henry's Law constant (mole fraction scale), kPa of trifluoromethane	uncertainty
284.15	3263	5
287.75	3615	5
291.4	3830	5
295.28	4133	5
299.26	4306	5
303.13	4361	5
307.11	4431	5

System: ethanol + trifluoromethane; phases: Liquid, Gas
Fixed: Pressure, kPa = 101.325
Property: Mole fraction of trifluoromethane (Liquid); method: Change in the gas volume
Temperature, K	Mole fraction of trifluoromethane	uncertainty
287.45	.0352	.0002112
292.4	.03125	.0001875
294.27	.03003	.00018018
296.17	.02845	.0001707
300.04	.02676	.00016056
302.05	.02619	.00015714
304.02	.02558	.00015348
306.21	.02555	.0001533
308.09	.02532	.00015192

System: ethanol + trifluoromethane; phases: Liquid, Gas
Fixed: Mole fraction of trifluoromethane = 0
Property: Henry's Law constant (mole fraction scale), kPa of trifluoromethane (Liquid); method: Determined from solubility data
Temperature, K	Henry's Law constant (mole fraction scale), kPa of trifluoromethane	uncertainty
287.45	2879	5
292.4	3242	5
294.27	3375	5
296.17	3561	5
300.04	3786	5
302.05	3869	5
304.02	3961	5
306.21	3965	5
308.09	4002	5

System: 1-propanol + trifluoromethane; phases: Liquid, Gas
Fixed: Pressure, kPa = 101.325
Property: Mole fraction of trifluoromethane (Liquid); method: Change in the gas volume
Temperature, K	Mole fraction of trifluoromethane	uncertainty
288.25	.04033	.00024198
291.3	.03917	.00023502
295.45	.03756	.00022536
299.29	.03464	.00020784
303.03	.0335	.000201
307.02	.032	.000192

System: 1-propanol + trifluoromethane; phases: Liquid, Gas
Fixed: Mole fraction of trifluoromethane = 0
Property: Henry's Law constant (mole fraction scale), kPa of trifluoromethane (Liquid); method: Determined from solubility data
Temperature, K	Henry's Law constant (mole fraction scale), kPa of trifluoromethane	uncertainty
288.25	2512	5
291.3	2587	5
295.45	2698	5
299.29	2925	5
303.03	3025	5
307.02	3167	5

System: 1-butanol + trifluoromethane; phases: Liquid, Gas
Fixed: Pressure, kPa = 101.325
Property: Mole fraction of trifluoromethane (Liquid); method: Change in the gas volume
Temperature, K	Mole fraction of trifluoromethane	uncertainty
287.65	.05389	.00032334
291.23	.05002	.00030012
295.45	.04658	.00027948
299.18	.04334	.00026004
303.03	.04044	.00024264
307.02	.03729	.00022374

System: 1-butanol + trifluoromethane; phases: Liquid, Gas
Fixed: Mole fraction of trifluoromethane = 0
Property: Henry's Law constant (mole fraction scale), kPa of trifluoromethane (Liquid); method: Determined from solubility data
Temperature, K	Henry's Law constant (mole fraction scale), kPa of trifluoromethane	uncertainty
287.65	1880	5
291.23	2026	5
295.45	2175	5
299.18	2338	5
303.03	2505	5
307.02	2717	5

System: methanol + difluoromethane; phases: Liquid, Gas
Fixed: Pressure, kPa = 101.325
Property: Mole fraction of difluoromethane (Liquid); method: Change in the gas volume
Temperature, K	Mole fraction of difluoromethane	uncertainty
287.75	.01932	.00011592
290.25	.01878	.00011268
293.35	.0174	.0001044
297.25	.01643	.00009858
301.06	.01581	.00009486
303.05	.01491	.00008946
307.03	.01426	.00008556

System: methanol + difluoromethane; phases: Liquid, Gas
Fixed: Mole fraction of difluoromethane = 0
Property: Henry's Law constant (mole fraction scale), kPa of difluoromethane (Liquid); method: Determined from solubility data
Temperature, K	Henry's Law constant (mole fraction scale), kPa of difluoromethane	uncertainty
287.75	5246	5
290.25	5396	5
293.35	5824	5
297.25	6165	5
301.06	6411	5
303.05	6795	5
307.03	7108	5

System: ethanol + difluoromethane; phases: Liquid, Gas
Fixed: Pressure, kPa = 101.325
Property: Mole fraction of difluoromethane (Liquid); method: Change in the gas volume
Temperature, K	Mole fraction of difluoromethane	uncertainty
287.75	.02576	.00015456
290.25	.02486	.00014916
293.15	.02245	.0001347
297.3	.02063	.00012378
301.06	.01898	.00011388
305.04	.01732	.00010392
313	.01361	.00008166

System: ethanol + difluoromethane; phases: Liquid, Gas
Fixed: Mole fraction of difluoromethane = 0
Property: Henry's Law constant (mole fraction scale), kPa of difluoromethane (Liquid); method: Determined from solubility data
Temperature, K	Henry's Law constant (mole fraction scale), kPa of difluoromethane	uncertainty
287.75	3934	5
290.25	4076	5
293.15	4513	5
297.3	4911	5
301.06	5338	5
305.04	5851	5
313	7445	5

System: 1-propanol + difluoromethane; phases: Liquid, Gas
Fixed: Pressure, kPa = 101.325
Property: Mole fraction of difluoromethane (Liquid); method: Change in the gas volume
Temperature, K	Mole fraction of difluoromethane	uncertainty
287.35	.03121	.00018726
290.55	.03123	.00018738
293.65	.02904	.00017424
297.25	.02799	.00016794
301.05	.02707	.00016242
305.04	.02574	.00015444
308.81	.02434	.00014604

System: 1-propanol + difluoromethane; phases: Liquid, Gas
Fixed: Mole fraction of difluoromethane = 0
Property: Henry's Law constant (mole fraction scale), kPa of difluoromethane (Liquid); method: Determined from solubility data
Temperature, K	Henry's Law constant (mole fraction scale), kPa of difluoromethane	uncertainty
287.35	3155	5
290.55	3244	5
293.65	3489	5
297.25	3620	5
301.05	3743	5
305.04	3936	5
308.81	4163	5

System: 1-butanol + difluoromethane; phases: Liquid, Gas
Fixed: Pressure, kPa = 101.325
Property: Mole fraction of difluoromethane (Liquid); method: Change in the gas volume
Temperature, K	Mole fraction of difluoromethane	uncertainty
287.35	.03834	.00023004
290.25	.03667	.00022002
293.15	.03468	.00020808
297.45	.03416	.00020496
301.05	.0333	.0001998
305.03	.03178	.00019068
309.02	.0301	.0001806

System: 1-butanol + difluoromethane; phases: Liquid, Gas
Fixed: Mole fraction of difluoromethane = 0
Property: Henry's Law constant (mole fraction scale), kPa of difluoromethane (Liquid); method: Determined from solubility data
Temperature, K	Henry's Law constant (mole fraction scale), kPa of difluoromethane	uncertainty
287.35	2643	5
290.25	2763	5
293.15	2922	5
297.45	2966	5
301.05	3043	5
305.03	3188	5
309.02	3366	5

System: methanol + fluoromethane; phases: Liquid, Gas
Fixed: Pressure, kPa = 101.325
Property: Mole fraction of fluoromethane (Liquid); method: Change in the gas volume
Temperature, K	Mole fraction of fluoromethane	uncertainty
288.15	.007428	.000044568
290.65	.00681	.00004086
293.15	.005882	.000035292
295.65	.005288	.000031728
298.15	.004614	.000027684
300.65	.004365	.00002619
303.25	.003945	.00002367
305.75	.003719	.000022314

System: methanol + fluoromethane; phases: Liquid, Gas
Fixed: Mole fraction of fluoromethane = 0
Property: Henry's Law constant (mole fraction scale), kPa of fluoromethane (Liquid); method: Determined from solubility data
Temperature, K	Henry's Law constant (mole fraction scale), kPa of fluoromethane	uncertainty
288.15	13642	5
290.65	14879	5
293.15	17226	5
295.65	19162	5
298.15	22020	5
300.65	23206	5
303.25	25684	5
305.75	27243	5

System: ethanol + fluoromethane; phases: Liquid, Gas
Fixed: Pressure, kPa = 101.325
Property: Mole fraction of fluoromethane (Liquid); method: Change in the gas volume
Temperature, K	Mole fraction of fluoromethane	uncertainty
288.05	.008782	.000052692
290.71	.007861	.000047166
293.55	.007113	.000042678
295.73	.006708	.000040248
298.35	.006353	.000038118
300.75	.00615	.0000369
303.25	.006121	.000036726
305.69	.005873	.000035238
308.05	.005788	.000034728

System: ethanol + fluoromethane; phases: Liquid, Gas
Fixed: Mole fraction of fluoromethane = 0
Property: Henry's Law constant (mole fraction scale), kPa of fluoromethane (Liquid); method: Determined from solubility data
Temperature, K	Henry's Law constant (mole fraction scale), kPa of fluoromethane	uncertainty
288.05	11538	5
290.71	12890	5
293.55	14245	5
295.73	15105	5
298.35	15950	5
300.75	16474	5
303.25	16552	5
305.69	17233	5
308.05	17505	5

System: 1-propanol + fluoromethane; phases: Liquid, Gas
Fixed: Pressure, kPa = 101.325
Property: Mole fraction of fluoromethane (Liquid); method: Change in the gas volume
Temperature, K	Mole fraction of fluoromethane	uncertainty
288.15	.01062	.00006372
290.75	.01018	.00006108
293.65	.009677	.000058062
295.67	.009205	.00005523
298.29	.008938	.000053628
300.73	.008605	.00005163
303.05	.008249	.000049494
308.23	.007546	.000045276

System: 1-propanol + fluoromethane; phases: Liquid, Gas
Fixed: Mole fraction of fluoromethane = 0
Property: Henry's Law constant (mole fraction scale), kPa of fluoromethane (Liquid); method: Determined from solubility data
Temperature, K	Henry's Law constant (mole fraction scale), kPa of fluoromethane	uncertainty
288.15	9540	5
290.75	9954	5
293.65	10471	5
295.67	11008	5
298.29	11337	5
300.73	11775	5
303.05	12283	5
308.23	13427	5

System: 1-butanol + fluoromethane; phases: Liquid, Gas
Fixed: Pressure, kPa = 101.325
Property: Mole fraction of fluoromethane (Liquid); method: Change in the gas volume
Temperature, K	Mole fraction of fluoromethane	uncertainty
288.25	.01241	.00007446
290.77	.01195	.0000717
293.23	.01151	.00006906
295.71	.01099	.00006594
298.25	.01059	.00006354
300.67	.01025	.0000615
303.25	.009949	.000059694
308.23	.009195	.00005517

System: 1-butanol + fluoromethane; phases: Liquid, Gas
Fixed: Mole fraction of fluoromethane = 0
Property: Henry's Law constant (mole fraction scale), kPa of fluoromethane (Liquid); method: Determined from solubility data
Temperature, K	Henry's Law constant (mole fraction scale), kPa of fluoromethane	uncertainty
288.25	8162	5
290.77	8479	5
293.23	8805	5
295.71	9220	5
298.25	9568	5
300.67	9884	5
303.25	10184	5
308.23	11020	5
