Measured thermophysical data. Isobaric vapor-liquid equilibrium for systems containing sulfur compounds
Source: Fluid Phase Equilib., 2013, 10.1016/j.fluid.2013.05.019
Compound 1: thiophene, C4H4S, purity 99.5%
Compound 2: 3-methylthiophene, C5H6S, purity 99.5%
Compound 3: 2,3-dimethyl-1-butene, C6H12, purity 99.5%
Compound 4: 2,3-dimethyl-2-butene, C6H12, purity 99.5%
Compound 5: n-heptane, C7H16, purity 99.5%

System: thiophene; phases: Liquid, Gas
Property: Boiling temperature at pressure P, K (Liquid); method: Ebulliometric method (Recirculating still)
Pressure, kPa	Boiling temperature at pressure P, K	uncertainty
101.325	357.42	.02

System: 3-methylthiophene; phases: Liquid, Gas
Property: Boiling temperature at pressure P, K (Liquid); method: Ebulliometric method (Recirculating still)
Pressure, kPa	Boiling temperature at pressure P, K	uncertainty
101.325	388.35	.02

System: 2,3-dimethyl-1-butene; phases: Liquid, Gas
Property: Boiling temperature at pressure P, K (Liquid); method: Ebulliometric method (Recirculating still)
Pressure, kPa	Boiling temperature at pressure P, K	uncertainty
101.325	328.88	.02

System: 2,3-dimethyl-2-butene; phases: Liquid, Gas
Property: Boiling temperature at pressure P, K (Liquid); method: Ebulliometric method (Recirculating still)
Pressure, kPa	Boiling temperature at pressure P, K	uncertainty
101.325	346.15	.02

System: n-heptane; phases: Liquid, Gas
Property: Boiling temperature at pressure P, K (Liquid); method: Ebulliometric method (Recirculating still)
Pressure, kPa	Boiling temperature at pressure P, K	uncertainty
101.325	371.64	.02

System: n-heptane; phases: Liquid, Gas
Property: Vapor or sublimation pressure, kPa (Liquid); method: Manometric method
Temperature, K	Vapor or sublimation pressure, kPa	uncertainty
370.27	97.43	.06
370.74	98.52	.06
370.93	99.39	.06
371.13	99.78	.06
371.52	101.07	.06
372.25	103.43	.06
372.36	103.56	.06
372.56	104.41	.06
372.76	104.67	.06
372.97	105.83	.06
373.17	106.29	.06
373.48	107.02	.06

System: thiophene + 2,3-dimethyl-2-butene; phases: Gas, Liquid
Property: Mole fraction of thiophene (Gas); method: Other
Mole fraction of thiophene	Pressure, kPa	Mole fraction of thiophene	uncertainty
.000048	101.33	.000022	.00001
.000103	101.33	.000056	.00001
.00011	101.33	.000049	.00001
.000138	101.33	.000063	.00001
.000145	101.33	.000068	.00001
.000151	101.33	.00007	.00001
.000156	101.33	.000074	.00001
.000197	101.33	.000089	.00001
.000218	101.33	.000099	.00001
.000256	101.33	.000109	.00001
.000299	101.33	.000119	.00001
.000325	101.33	.000147	.00001
.000359	101.33	.000165	.00001
.000418	101.33	.000197	.00001
.000465	101.33	.000207	.00001
.000513	101.33	.000244	.00001
.000576	101.33	.000296	.00001
.000624	101.33	.000317	.00001
.000681	101.33	.000358	.00001
.000713	101.33	.000405	.00001
.000784	101.33	.000436	.00001
.000852	101.33	.000499	.00001
.000916	101.33	.000565	.00001
.000981	101.33	.000667	.00001

System: thiophene + 2,3-dimethyl-2-butene; phases: Liquid, Gas
Property: Boiling temperature at pressure P, K (Liquid); method: Ebulliometric method (Recirculating still)
Mole fraction of thiophene	Pressure, kPa	Boiling temperature at pressure P, K	uncertainty
.000048	101.33	346.25	.02
.000103	101.33	346.25	.02
.00011	101.33	346.25	.02
.000138	101.33	346.27	.02
.000145	101.33	346.27	.02
.000151	101.33	346.27	.02
.000156	101.33	346.27	.02
.000197	101.33	346.27	.02
.000218	101.33	346.27	.02
.000256	101.33	346.27	.02
.000299	101.33	346.27	.02
.000325	101.33	346.27	.02
.000359	101.33	346.27	.02
.000418	101.33	346.27	.02
.000465	101.33	346.27	.02
.000513	101.33	346.27	.02
.000576	101.33	346.27	.02
.000624	101.33	346.27	.02
.000681	101.33	346.27	.02
.000713	101.33	346.27	.02
.000784	101.33	346.27	.02
.000852	101.33	346.29	.02
.000916	101.33	346.29	.02
.000981	101.33	346.29	.02

System: thiophene + n-heptane; phases: Gas, Liquid
Property: Mole fraction of thiophene (Gas); method: Other
Mole fraction of thiophene	Pressure, kPa	Mole fraction of thiophene	uncertainty
.000015	101.33	.000026	.00001
.000028	101.33	.00006	.00001
.00003	101.33	.000075	.00001
.000035	101.33	.000068	.00001
.000037	101.33	.000094	.00001
.000074	101.33	.000156	.00001
.000076	101.33	.000167	.00001
.000077	101.33	.000145	.00001
.000077	101.33	.000144	.00001
.000077	101.33	.000169	.00001
.000088	101.33	.000172	.00001
.000094	101.33	.000195	.00001
.000138	101.33	.000248	.00001
.000141	101.33	.000306	.00001
.000154	101.33	.000307	.00001
.000163	101.33	.000304	.00001
.000176	101.33	.000334	.00001
.000179	101.33	.000354	.00001
.000196	101.33	.000427	.00001
.0002	101.33	.000419	.00001
.000265	101.33	.000553	.00001
.000293	101.33	.000633	.00001
.000334	101.33	.000764	.00001
.000412	101.33	.001034	.00001
.000438	101.33	.001173	.00001
.000466	101.33	.001178	.00001
.000516	101.33	.001499	.00001
.000608	101.33	.001793	.00001
.000708	101.33	.002213	.00001
.000769	101.33	.002576	.00001
.000814	101.33	.002836	.00001
.000871	101.33	.003216	.00001
.000934	101.33	.003585	.00001
.000989	101.33	.004012	.00001
.001054	101.33	.004528	.00001

System: thiophene + n-heptane; phases: Liquid, Gas
Property: Boiling temperature at pressure P, K (Liquid); method: Ebulliometric method (Recirculating still)
Mole fraction of thiophene	Pressure, kPa	Boiling temperature at pressure P, K	uncertainty
.000015	101.33	371.34	.02
.000028	101.33	371.34	.02
.00003	101.33	371.34	.02
.000035	101.33	371.34	.02
.000037	101.33	371.34	.02
.000074	101.33	371.34	.02
.000076	101.33	371.34	.02
.000077	101.33	371.34	.02
.000077	101.33	371.34	.02
.000077	101.33	371.34	.02
.000088	101.33	371.34	.02
.000094	101.33	371.34	.02
.000138	101.33	371.34	.02
.000141	101.33	371.34	.02
.000154	101.33	371.32	.02
.000163	101.33	371.32	.02
.000176	101.33	371.32	.02
.000179	101.33	371.32	.02
.000196	101.33	371.32	.02
.0002	101.33	371.32	.02
.000265	101.33	371.32	.02
.000293	101.33	371.32	.02
.000334	101.33	371.32	.02
.000412	101.33	371.3	.02
.000438	101.33	371.3	.02
.000466	101.33	371.3	.02
.000516	101.33	371.3	.02
.000608	101.33	371.3	.02
.000708	101.33	371.28	.02
.000769	101.33	371.28	.02
.000814	101.33	371.28	.02
.000871	101.33	371.28	.02
.000934	101.33	371.28	.02
.000989	101.33	371.28	.02
.001054	101.33	371.28	.02

System: 2,3-dimethyl-1-butene + 3-methylthiophene; phases: Gas, Liquid
Property: Mole fraction of 3-methylthiophene (Gas); method: Other
Mole fraction of 3-methylthiophene	Pressure, kPa	Mole fraction of 3-methylthiophene	uncertainty
.000049	101.33	.000012	.00001
.000089	101.33	.00002	.00001
.000142	101.33	.000028	.00001
.00021	101.33	.000038	.00001
.000227	101.33	.000044	.00001
.000276	101.33	.000051	.00001
.000334	101.33	.000063	.00001
.000378	101.33	.000073	.00001
.000404	101.33	.000076	.00001
.000469	101.33	.000079	.00001
.000508	101.33	.000087	.00001
.000581	101.33	.000104	.00001
.00063	101.33	.000106	.00001
.000681	101.33	.000114	.00001
.000709	101.33	.000119	.00001
.000726	101.33	.000117	.00001
.000741	101.33	.000121	.00001
.000793	101.33	.000127	.00001
.00082	101.33	.00013	.00001
.000895	101.33	.000134	.00001
.000937	101.33	.000143	.00001
.00099	101.33	.000147	.00001
.001051	101.33	.000147	.00001
.001129	101.33	.00015	.00001
.000026	101.33	.000022	.00001
.00004	101.33	.000036	.00001
.000067	101.33	.000056	.00001
.000127	101.33	.000119	.00001
.000135	101.33	.000163	.00001
.000195	101.33	.000205	.00001
.000206	101.33	.000216	.00001
.000238	101.33	.000269	.00001
.000269	101.33	.000289	.00001
.000279	101.33	.000293	.00001
.000306	101.33	.000309	.00001
.000329	101.33	.000337	.00001
.000354	101.33	.000385	.00001
.000403	101.33	.000405	.00001
.000422	101.33	.000467	.00001
.000463	101.33	.000485	.00001
.000521	101.33	.000505	.00001
.000576	101.33	.000537	.00001
.000614	101.33	.000626	.00001
.000655	101.33	.000653	.00001
.00071	101.33	.000652	.00001
.000785	101.33	.000763	.00001
.000839	101.33	.000782	.00001
.000881	101.33	.000772	.00001
.000945	101.33	.000867	.00001
.000993	101.33	.000883	.00001
.001032	101.33	.000896	.00001
.001047	101.33	.000913	.00001
.001087	101.33	.000932	.00001
.001184	101.33	.000946	.00001
.001247	101.33	.000995	.00001
.001306	101.33	.001011	.00001
.001349	101.33	.001005	.00001
.001432	101.33	.001019	.00001

System: 2,3-dimethyl-1-butene + 3-methylthiophene; phases: Liquid, Gas
Property: Boiling temperature at pressure P, K (Liquid); method: Ebulliometric method (Recirculating still)
Mole fraction of 3-methylthiophene	Pressure, kPa	Boiling temperature at pressure P, K	uncertainty
.000049	101.33	328.68	.02
.000089	101.33	328.68	.02
.000142	101.33	328.7	.02
.00021	101.33	328.7	.02
.000227	101.33	328.7	.02
.000276	101.33	328.7	.02
.000334	101.33	328.7	.02
.000378	101.33	328.7	.02
.000404	101.33	328.7	.02
.000469	101.33	328.7	.02
.000508	101.33	328.7	.02
.000581	101.33	328.72	.02
.00063	101.33	328.72	.02
.000681	101.33	328.72	.02
.000709	101.33	328.72	.02
.000726	101.33	328.72	.02
.000741	101.33	328.72	.02
.000793	101.33	328.72	.02
.00082	101.33	328.72	.02
.000895	101.33	328.74	.02
.000937	101.33	328.74	.02
.00099	101.33	328.74	.02
.001051	101.33	328.74	.02
.001129	101.33	328.74	.02
.000026	101.33	371.34	.02
.00004	101.33	371.34	.02
.000067	101.33	371.34	.02
.000127	101.33	371.34	.02
.000135	101.33	371.34	.02
.000195	101.33	371.34	.02
.000206	101.33	371.34	.02
.000238	101.33	371.34	.02
.000269	101.33	371.34	.02
.000279	101.33	371.34	.02
.000306	101.33	371.34	.02
.000329	101.33	371.34	.02
.000354	101.33	371.34	.02
.000403	101.33	371.34	.02
.000422	101.33	371.34	.02
.000463	101.33	371.34	.02
.000521	101.33	371.34	.02
.000576	101.33	371.34	.02
.000614	101.33	371.34	.02
.000655	101.33	371.34	.02
.00071	101.33	371.34	.02
.000785	101.33	371.36	.02
.000839	101.33	371.36	.02
.000881	101.33	371.36	.02
.000945	101.33	371.36	.02
.000993	101.33	371.36	.02
.001032	101.33	371.36	.02
.001047	101.33	371.36	.02
.001087	101.33	371.36	.02
.001184	101.33	371.36	.02
.001247	101.33	371.36	.02
.001306	101.33	371.36	.02
.001349	101.33	371.36	.02
.001432	101.33	371.38	.02
