Measured thermophysical data. Studies on the density, heat capacity, surface tension and infinite dilution diffusion with the ionic liquids [C4mim][NTf2], [C4mim][dca], [C2mim][EtOSO3] and [Aliquat][dca]
Source: Fluid Phase Equilib., 2010, 10.1016/j.fluid.2010.03.010
Compound 1: 1-ethyl-3-methylimidazolium ethyl sulfate, C8H16N2O4S
Compound 2: 1-butyl-3-methylimidazolium bis[(trifluoromethyl)sulfonyl]imide, C10H15F6N3O4S2
Compound 3: 1-butyl-3-methylimidazolium dicyanamide, C10H15N5
Compound 4: water, H2O, purity 99.9%

System: 1-ethyl-3-methylimidazolium ethyl sulfate; phases: Liquid
Fixed: Pressure, kPa = 101.325
Property: Mass density, kg/m3 (Liquid); method: Vibrating tube method
Temperature, K	Mass density, kg/m3	uncertainty
293.15	1241.37	4.96548
294.15	1240.67	4.96268
295.15	1239.97	4.95988
296.15	1239.28	4.95712
297.15	1238.58	4.95432
298.15	1237.88	4.95152
299.15	1237.19	4.94876
300.15	1236.5	4.946
301.15	1235.81	4.94324
302.15	1235.12	4.94048
303.15	1234.43	4.93772
304.15	1233.74	4.93496
305.15	1233.05	4.9322
306.15	1232.37	4.92948
307.15	1231.69	4.92676
308.15	1231	4.924
309.15	1230.32	4.92128
310.15	1229.64	4.91856
311.15	1228.96	4.91584
312.15	1228.28	4.91312
313.15	1227.61	4.91044
318.15	1224.23	4.89692
319.15	1223.56	4.89424
320.15	1222.89	4.89156
321.15	1222.21	4.88884
322.15	1221.54	4.88616
323.15	1220.88	4.88352
324.15	1220.21	4.88084
325.15	1219.54	4.87816
326.15	1218.87	4.87548
327.15	1218.21	4.87284
328.15	1217.54	4.87016
329.15	1216.88	4.86752
330.15	1216.21	4.86484
331.15	1215.55	4.8622
332.15	1214.89	4.85956
333.15	1214.23	4.85692
334.15	1213.56	4.85424
335.15	1212.9	4.8516
336.15	1212.24	4.84896
337.15	1211.58	4.84632
338.15	1210.92	4.84368
343.15	1207.63	4.83052
344.15	1206.97	4.82788
345.15	1206.32	4.82528
346.15	1205.66	4.82264
347.15	1205.01	4.82004
348.15	1204.36	4.81744
349.15	1203.7	4.8148
350.15	1203.05	4.8122
351.15	1202.4	4.8096
352.15	1201.75	4.807
353.15	1201.09	4.80436
354.15	1200.44	4.80176
355.15	1199.79	4.79916
356.15	1199.14	4.79656
357.15	1198.49	4.79396
358.15	1197.84	4.79136
359.15	1197.2	4.7888
360.15	1196.55	4.7862
361.15	1195.9	4.7836
362.15	1195.26	4.78104
363.15	1194.61	4.77844
314.15	1226.93	4.90772
315.15	1226.25	4.905
316.15	1225.58	4.90232
317.15	1224.9	4.8996
339.15	1210.26	4.84104
340.15	1209.6	4.8384
341.15	1208.95	4.8358
342.15	1208.29	4.83316

System: 1-ethyl-3-methylimidazolium ethyl sulfate; phases: Liquid
Property: Mass density, kg/m3 (Liquid); method: Vibrating tube method
Temperature, K	Pressure, kPa	Mass density, kg/m3	uncertainty
293.15	100	1241.3	4.9652
293.15	250	1241.4	4.9656
293.15	500	1241.4	4.9656
293.15	1000	1241.7	4.9668
293.15	1990	1242.1	4.9684
293.15	4990	1243.3	4.9732
293.15	10010	1245.3	4.9812
293.15	14990	1247.2	4.9888
293.15	20000	1249.2	4.9968
293.15	24990	1251.1	5.0044
293.15	30010	1253	5.012
293.15	35000	1254.8	5.0192
293.15	40000	1256.6	5.0264
293.15	45000	1258.4	5.0336
293.15	50000	1260.2	5.0408
293.15	55000	1262	5.048
293.15	60000	1263.7	5.0548
303.15	100	1234.3	4.9372
303.15	250	1234.4	4.9376
303.15	500	1234.5	4.938
303.15	1000	1234.7	4.9388
303.15	2010	1235.1	4.9404
303.15	4990	1236.3	4.9452
303.15	10010	1238.4	4.9536
303.15	14990	1240.4	4.9616
303.15	20000	1242.4	4.9696
303.15	24990	1244.3	4.9772
303.15	30010	1246.3	4.9852
303.15	35010	1248.1	4.9924
303.15	40000	1250	5
303.15	45000	1251.8	5.0072
303.15	50000	1253.6	5.0144
303.15	55000	1255.4	5.0216
303.15	60000	1257.1	5.0284
313.15	100	1227.5	4.91
313.15	250	1227.5	4.91
313.15	500	1227.6	4.9104
313.15	2000	1228.3	4.9132
313.15	4990	1229.5	4.918
313.15	10010	1231.7	4.9268
313.15	14990	1233.7	4.9348
313.15	20000	1235.7	4.9428
313.15	25000	1237.6	4.9504
313.15	30010	1239.6	4.9584
313.15	35000	1241.5	4.966
313.15	40000	1243.4	4.9736
313.15	44990	1245.3	4.9812
313.15	50000	1247.1	4.9884
313.15	54990	1248.9	4.9956
313.15	60000	1250.7	5.0028
323.15	100	1220.7	4.8828
323.15	250	1220.8	4.8832
323.15	500	1220.9	4.8836
323.15	1010	1221.1	4.8844
323.15	2010	1221.6	4.8864
323.15	4990	1222.9	4.8916
323.15	10010	1225	4.9
323.15	14990	1227.1	4.9084
323.15	20010	1229.1	4.9164
323.15	25000	1231.1	4.9244
323.15	30010	1233.1	4.9324
323.15	35000	1235.1	4.9404
323.15	40000	1237	4.948
323.15	45000	1238.9	4.9556
323.15	50000	1240.8	4.9632
323.15	55000	1242.6	4.9704
323.15	60000	1244.5	4.978
333.15	100	1214.1	4.8564
333.15	250	1214.1	4.8564
333.15	500	1214.2	4.8568
333.15	1000	1214.4	4.8576
333.15	2010	1214.9	4.8596
333.15	5000	1216.2	4.8648
333.15	10010	1218.4	4.8736
333.15	14990	1220.5	4.882
333.15	20000	1222.7	4.8908
333.15	24990	1224.7	4.8988
333.15	30000	1226.7	4.9068
333.15	34990	1228.7	4.9148
333.15	40000	1230.7	4.9228
333.15	45020	1232.6	4.9304
333.15	50000	1234.5	4.938
333.15	54990	1236.4	4.9456
333.15	60000	1238.3	4.9532
343.15	100	1207.4	4.8296
343.15	250	1207.5	4.83
343.15	500	1207.6	4.8304
343.15	1010	1207.8	4.8312
343.15	1990	1208.3	4.8332
343.15	4990	1209.6	4.8384
343.15	10010	1211.9	4.8476
343.15	14990	1214.1	4.8564
343.15	20010	1216.3	4.8652
343.15	24990	1218.3	4.8732
343.15	30000	1220.4	4.8816
343.15	35010	1222.4	4.8896
343.15	40000	1224.5	4.898
343.15	45000	1226.4	4.9056
343.15	50000	1228.4	4.9136
343.15	54990	1230.3	4.9212
343.15	60000	1232.2	4.9288
353.15	100	1200.9	4.8036
353.15	250	1200.9	4.8036
353.15	500	1201	4.804
353.15	1010	1201.3	4.8052
353.15	2000	1201.8	4.8072
353.15	4990	1203.1	4.8124
353.15	10010	1205.5	4.822
353.15	15000	1207.6	4.8304
353.15	20000	1209.9	4.8396
353.15	24990	1212	4.848
353.15	30010	1214.2	4.8568
353.15	34990	1216.2	4.8648
353.15	40000	1218.3	4.8732
353.15	45000	1220.2	4.8808
353.15	50000	1222.3	4.8892
353.15	54990	1224.2	4.8968
353.15	60000	1226.1	4.9044
363.15	100	1194.3	4.7772
363.15	250	1194.4	4.7776
363.15	500	1194.5	4.778
363.15	1000	1194.7	4.7788
363.15	2000	1195.2	4.7808
363.15	4990	1196.6	4.7864
363.15	10010	1199	4.796
363.15	14990	1201.3	4.8052
363.15	19990	1203.6	4.8144
363.15	25000	1205.7	4.8228
363.15	30000	1207.9	4.8316
363.15	34990	1210	4.84
363.15	40000	1212.2	4.8488
363.15	45000	1214.2	4.8568
363.15	50000	1216.2	4.8648
363.15	55000	1218.2	4.8728
363.15	60000	1220.2	4.8808
373.15	100	1187.8	4.7512
373.15	250	1187.9	4.7516
373.15	500	1188	4.752
373.15	1010	1188.2	4.7528
373.15	2000	1188.7	4.7548
373.15	4990	1190.2	4.7608
373.15	10010	1192.6	4.7704
373.15	14990	1194.9	4.7796
373.15	20010	1197.3	4.7892
373.15	25000	1199.5	4.798
373.15	30010	1201.7	4.8068
373.15	34990	1203.9	4.8156
373.15	40000	1206.1	4.8244
373.15	45000	1208.1	4.8324
373.15	50000	1210.2	4.8408
373.15	54990	1212.3	4.8492
373.15	60000	1214.3	4.8572
393.15	100	1174.8	4.6992
393.15	250	1174.9	4.6996
393.15	500	1175	4.7
393.15	1010	1175.3	4.7012
393.15	2000	1175.8	4.7032
393.15	4990	1177.3	4.7092
393.15	10000	1179.9	4.7196
393.15	15000	1182.3	4.7292
393.15	20010	1184.8	4.7392
393.15	24990	1187.1	4.7484
393.15	30010	1189.5	4.758
393.15	34990	1191.7	4.7668
393.15	40000	1194	4.776
393.15	45010	1196.2	4.7848
393.15	50000	1198.4	4.7936
393.15	55000	1200.5	4.802
393.15	60000	1202.6	4.8104
413.15	100	1161.7	4.6468
413.15	250	1161.8	4.6472
413.15	500	1162	4.648
413.15	1010	1162.2	4.6488
413.15	2000	1162.8	4.6512
413.15	4990	1164.4	4.6576
413.15	10000	1167.2	4.6688
413.15	14990	1169.7	4.6788
413.15	20010	1172.4	4.6896
413.15	24990	1174.8	4.6992
413.15	30000	1177.4	4.7096
413.15	34990	1179.7	4.7188
413.15	40000	1182.1	4.7284
413.15	45000	1184.4	4.7376
413.15	50000	1186.7	4.7468
413.15	54990	1188.9	4.7556
413.15	60000	1191.1	4.7644
433.15	100	1148.6	4.5944
433.15	250	1148.7	4.5948
433.15	500	1148.8	4.5952
433.15	1010	1149.1	4.5964
433.15	2000	1149.7	4.5988
433.15	4990	1151.4	4.6056
433.15	10010	1154.4	4.6176
433.15	14990	1157.1	4.6284
433.15	20010	1159.9	4.6396
433.15	24990	1162.5	4.65
433.15	30010	1165.2	4.6608
433.15	34990	1167.6	4.6704
433.15	40000	1170.2	4.6808
433.15	45010	1172.6	4.6904
433.15	50000	1175.1	4.7004
433.15	54990	1177.4	4.7096
433.15	60000	1179.7	4.7188

System: 1-ethyl-3-methylimidazolium ethyl sulfate; phases: Liquid
Fixed: Pressure, kPa = 101.325
Property: Molar heat capacity at constant pressure, J/K/mol (Liquid); method: Differential Scanning Calorimetry
Temperature, K	Molar heat capacity at constant pressure, J/K/mol	uncertainty
308.16	393.42	5.9013
313.16	396.97	5.95455
318.16	399.33	5.98995
323.16	402.06	6.0309
328.22	405.24	6.0786
333.22	406.42	6.0963
338.19	408.78	6.1317
343.18	411.14	6.1671
348.25	414.69	6.22035
353.18	415.87	6.23805
358.25	418.23	6.27345
363.18	420.6	6.309

System: 1-ethyl-3-methylimidazolium ethyl sulfate; phases: Liquid, Gas
Property: Surface tension liquid-gas, N/m (Liquid); method: Wilhelmg Plate Tensimeter
Temperature, K	Surface tension liquid-gas, N/m	uncertainty
292.91	.047165	.00084897
298.26	.046901	.000844218
303	.046595	.00083871
308.61	.046349	.000834282
313.41	.046115	.00083007
322.71	.045505	.00081909
332.09	.045076	.000811368

System: 1-butyl-3-methylimidazolium bis[(trifluoromethyl)sulfonyl]imide; phases: Liquid
Fixed: Pressure, kPa = 101.325
Property: Mass density, kg/m3 (Liquid); method: Vibrating tube method
Temperature, K	Mass density, kg/m3	uncertainty
293.15	1441.34	5.76536
294.15	1440.37	5.76148
295.15	1439.4	5.7576
296.15	1438.43	5.75372
297.15	1437.46	5.74984
298.15	1436.5	5.746
299.15	1435.53	5.74212
300.15	1434.57	5.73828
301.15	1433.61	5.73444
302.15	1432.64	5.73056
303.15	1431.69	5.72676
304.15	1430.73	5.72292
305.15	1429.77	5.71908
306.15	1428.82	5.71528
307.15	1427.86	5.71144
308.15	1426.9	5.7076
309.15	1425.95	5.7038
310.15	1425	5.7
311.15	1424.05	5.6962
312.15	1423.1	5.6924
313.15	1422.15	5.6886
318.15	1417.41	5.66964
319.15	1416.47	5.66588
320.15	1415.53	5.66212
321.15	1414.58	5.65832
322.15	1413.64	5.65456
323.15	1412.7	5.6508
324.15	1411.76	5.64704
325.15	1410.82	5.64328
326.15	1409.88	5.63952
327.15	1408.94	5.63576
328.15	1408	5.632
329.15	1407.06	5.62824
330.15	1406.12	5.62448
331.15	1405.19	5.62076
332.15	1404.25	5.617
333.15	1403.32	5.61328
334.15	1402.39	5.60956
335.15	1401.45	5.6058
336.15	1400.52	5.60208
337.15	1399.59	5.59836
338.15	1398.66	5.59464
343.15	1394.01	5.57604
344.15	1393.09	5.57236
345.15	1392.16	5.56864
346.15	1391.23	5.56492
347.15	1390.31	5.56124
348.15	1389.38	5.55752
349.15	1388.46	5.55384
350.15	1387.54	5.55016
351.15	1386.61	5.54644
352.15	1385.69	5.54276
353.15	1384.77	5.53908
354.15	1383.85	5.5354
355.15	1382.93	5.53172
356.15	1382.01	5.52804
357.15	1381.09	5.52436
358.15	1380.17	5.52068
359.15	1379.25	5.517
360.15	1378.34	5.51336
361.15	1377.42	5.50968
362.15	1376.5	5.506
363.15	1375.58	5.50232
314.15	1421.2	5.6848
315.15	1420.25	5.681
316.15	1419.3	5.6772
317.15	1418.36	5.67344
339.15	1397.73	5.59092
340.15	1396.8	5.5872
341.15	1395.87	5.58348
342.15	1394.94	5.57976

System: 1-butyl-3-methylimidazolium bis[(trifluoromethyl)sulfonyl]imide; phases: Liquid
Property: Mass density, kg/m3 (Liquid); method: Vibrating tube method
Temperature, K	Pressure, kPa	Mass density, kg/m3	uncertainty
293.15	100	1441.8	5.7672
293.15	250	1441.9	5.7676
293.15	500	1442.1	5.7684
293.15	1000	1442.4	5.7696
293.15	2000	1443.2	5.7728
293.15	4990	1445.4	5.7816
293.15	10000	1449	5.796
293.15	15000	1452.5	5.81
293.15	20000	1456	5.824
293.15	25010	1459.3	5.8372
293.15	30000	1462.6	5.8504
293.15	35000	1465.8	5.8632
293.15	40000	1469.1	5.8764
293.15	45000	1472.2	5.8888
293.15	50000	1475.3	5.9012
293.15	55000	1478.3	5.9132
293.15	59970	1481.3	5.9252
303.15	100	1432.3	5.7292
303.15	250	1432.4	5.7296
303.15	500	1432.6	5.7304
303.15	1000	1432.9	5.7316
303.15	2000	1433.7	5.7348
303.15	5000	1436	5.744
303.15	10000	1439.7	5.7588
303.15	15000	1443.3	5.7732
303.15	20000	1446.8	5.7872
303.15	25000	1450.2	5.8008
303.15	30000	1453.6	5.8144
303.15	34990	1456.9	5.8276
303.15	40000	1460.2	5.8408
303.15	45010	1463.4	5.8536
303.15	50000	1466.5	5.866
303.15	54990	1469.6	5.8784
303.15	60010	1472.7	5.8908
313.15	100	1422.8	5.6912
313.15	250	1422.9	5.6916
313.15	500	1423.1	5.6924
313.15	1000	1423.5	5.694
313.15	2000	1424.3	5.6972
313.15	5000	1426.6	5.7064
313.15	10000	1430.4	5.7216
313.15	15010	1434.1	5.7364
313.15	20010	1437.7	5.7508
313.15	25000	1441.2	5.7648
313.15	30000	1444.7	5.7788
313.15	34990	1448	5.792
313.15	40000	1451.4	5.8056
313.15	45010	1454.6	5.8184
313.15	50010	1457.9	5.8316
313.15	55000	1461	5.844
313.15	60000	1464.1	5.8564
323.15	100	1413.5	5.654
323.15	250	1413.6	5.6544
323.15	500	1413.8	5.6552
323.15	1010	1414.2	5.6568
323.15	2000	1415	5.66
323.15	4990	1417.4	5.6696
323.15	10010	1421.3	5.6852
323.15	14990	1425.1	5.7004
323.15	20010	1428.8	5.7152
323.15	24990	1432.4	5.7296
323.15	30010	1435.9	5.7436
323.15	35010	1439.4	5.7576
323.15	40000	1442.8	5.7712
323.15	45000	1446.1	5.7844
323.15	50000	1449.4	5.7976
323.15	55000	1452.6	5.8104
323.15	60000	1455.8	5.8232
333.15	100	1404.2	5.6168
333.15	250	1404.3	5.6172
333.15	500	1404.5	5.618
333.15	1010	1404.9	5.6196
333.15	2000	1405.8	5.6232
333.15	4990	1408.2	5.6328
333.15	10000	1412.3	5.6492
333.15	14990	1416.2	5.6648
333.15	20010	1420	5.68
333.15	25000	1423.6	5.6944
333.15	30010	1427.3	5.7092
333.15	34990	1430.8	5.7232
333.15	40010	1434.3	5.7372
333.15	45000	1437.6	5.7504
333.15	50000	1441	5.764
333.15	54990	1444.3	5.7772
333.15	60000	1447.5	5.79
343.15	100	1395	5.58
343.15	250	1395.1	5.5804
343.15	500	1395.3	5.5812
343.15	1000	1395.7	5.5828
343.15	2000	1396.6	5.5864
343.15	4990	1399.1	5.5964
343.15	10010	1403.3	5.6132
343.15	14910	1407.2	5.6288
343.15	20000	1411.2	5.6448
343.15	24990	1414.9	5.6596
343.15	30010	1418.7	5.6748
343.15	34990	1422.3	5.6892
343.15	39990	1425.8	5.7032
343.15	45000	1429.3	5.7172
343.15	50000	1432.7	5.7308
343.15	55000	1436.1	5.7444
343.15	60000	1439.4	5.7576
353.15	100	1385.8	5.5432
353.15	250	1385.9	5.5436
353.15	500	1386.1	5.5444
353.15	1000	1386.5	5.546
353.15	2000	1387.4	5.5496
353.15	5000	1390.1	5.5604
353.15	10000	1394.3	5.5772
353.15	14990	1398.4	5.5936
353.15	20010	1402.5	5.61
353.15	24990	1406.3	5.6252
353.15	30010	1410.2	5.6408
353.15	34990	1413.8	5.6552
353.15	40000	1417.5	5.67
353.15	45000	1421	5.684
353.15	50000	1424.6	5.6984
353.15	54990	1427.9	5.7116
353.15	60010	1431.3	5.7252
363.15	100	1376.6	5.5064
363.15	250	1376.7	5.5068
363.15	500	1376.9	5.5076
363.15	1010	1377.4	5.5096
363.15	4990	1381	5.524
363.15	10010	1385.4	5.5416
363.15	14990	1389.6	5.5584
363.15	20010	1393.8	5.5752
363.15	25000	1397.8	5.5912
363.15	30010	1401.7	5.6068
363.15	34990	1405.5	5.622
363.15	40000	1409.2	5.6368
363.15	45010	1412.8	5.6512
363.15	50000	1416.4	5.6656
363.15	54990	1419.9	5.6796
363.15	60000	1423.4	5.6936
373.15	100	1367.3	5.4692
373.15	250	1367.4	5.4696
373.15	500	1367.7	5.4708
373.15	1010	1368.2	5.4728
373.15	2000	1369.1	5.4764
373.15	4990	1371.9	5.4876
373.15	10000	1376.5	5.506
373.15	14990	1380.8	5.5232
373.15	20000	1385.1	5.5404
373.15	24990	1389.2	5.5568
373.15	30010	1393.3	5.5732
373.15	34970	1397.1	5.5884
373.15	40000	1401	5.604
373.15	45000	1404.7	5.6188
373.15	50000	1408.4	5.6336
373.15	54990	1411.9	5.6476
373.15	60010	1415.5	5.662
393.15	100	1348.8	5.3952
393.15	250	1348.9	5.3956
393.15	500	1349.2	5.3968
393.15	1000	1349.7	5.3988
393.15	2000	1350.7	5.4028
393.15	4990	1353.7	5.4148
393.15	10000	1358.6	5.4344
393.15	15000	1363.2	5.4528
393.15	20010	1367.8	5.4712
393.15	25000	1372.1	5.4884
393.15	30010	1376.4	5.5056
393.15	35000	1380.5	5.522
393.15	40000	1384.6	5.5384
393.15	45000	1388.5	5.554
393.15	50000	1392.4	5.5696
393.15	55020	1396.2	5.5848
393.15	60000	1399.9	5.5996
413.15	100	1330	5.32
413.15	250	1330.2	5.3208
413.15	500	1330.5	5.322
413.15	1000	1331	5.324
413.15	2000	1332.1	5.3284
413.15	4990	1335.3	5.3412
413.15	10000	1340.6	5.3624
413.15	14990	1345.6	5.3824
413.15	20010	1350.5	5.402
413.15	25000	1355.1	5.4204
413.15	30000	1359.7	5.4388
413.15	34990	1364	5.456
413.15	40000	1368.4	5.4736
413.15	45000	1372.5	5.49
413.15	50000	1376.6	5.5064
413.15	55000	1380.6	5.5224
413.15	60000	1384.5	5.538
433.15	100	1311	5.244
433.15	250	1311.1	5.2444
433.15	500	1311.4	5.2456
433.15	1000	1312	5.248
433.15	2000	1313.2	5.2528
433.15	4990	1316.7	5.2668
433.15	10000	1322.4	5.2896
433.15	15000	1327.8	5.3112
433.15	20010	1333	5.332
433.15	25010	1338	5.352
433.15	30010	1342.9	5.3716
433.15	34990	1347.5	5.39
433.15	40000	1352.1	5.4084
433.15	45000	1356.6	5.4264
433.15	50000	1360.9	5.4436
433.15	55000	1365.1	5.4604
433.15	60000	1369.3	5.4772
453.15	100	1291.4	5.1656
453.15	250	1291.7	5.1668
453.15	500	1292	5.168
453.15	1000	1292.6	5.1704
453.15	1950	1294	5.176
453.15	20000	1315.3	5.2612
453.15	25000	1320.7	5.2828
453.15	30010	1325.9	5.3036
453.15	35000	1330.9	5.3236
453.15	40000	1335.9	5.3436
453.15	45010	1340.6	5.3624
453.15	50000	1345.3	5.3812
453.15	54990	1349.8	5.3992
453.15	60000	1354.3	5.4172
453.15	4990	1297.7	5.1908
453.15	10000	1303.9	5.2156
453.15	15000	1309.7	5.2388
473.15	100	1271.4	5.0856
473.15	250	1271.7	5.0868
473.15	500	1272	5.088
473.15	990	1272.7	5.0908
473.15	2000	1274.2	5.0968
473.15	4990	1278.2	5.1128
473.15	10000	1285	5.14
473.15	15000	1291.2	5.1648
473.15	20010	1297.4	5.1896
473.15	24990	1303.2	5.2128
473.15	30010	1308.9	5.2356
473.15	34990	1314.2	5.2568
473.15	40010	1319.6	5.2784
473.15	45000	1324.7	5.2988
473.15	50000	1329.7	5.3188
473.15	55000	1334.5	5.338
473.15	60000	1339.3	5.3572

System: 1-butyl-3-methylimidazolium bis[(trifluoromethyl)sulfonyl]imide; phases: Liquid
Fixed: Pressure, kPa = 101.325
Property: Molar heat capacity at constant pressure, J/K/mol (Liquid); method: Differential Scanning Calorimetry
Temperature, K	Molar heat capacity at constant pressure, J/K/mol	uncertainty
308.16	573.13	8.59695
313.16	575.92	8.6388
318.16	577.32	8.6598
323.16	581.51	8.72265
328.22	584.31	8.76465
333.22	588.5	8.8275
338.19	588.5	8.8275
343.18	592.7	8.8905
348.25	595.49	8.93235
353.18	596.89	8.95335
358.25	599.68	8.9952
363.18	602.48	9.0372

System: 1-butyl-3-methylimidazolium dicyanamide; phases: Liquid
Fixed: Pressure, kPa = 101.325
Property: Mass density, kg/m3 (Liquid); method: Vibrating tube method
Temperature, K	Mass density, kg/m3	uncertainty
293.15	1063.73	4.25492
294.15	1063.09	4.25236
295.15	1062.45	4.2498
296.15	1061.81	4.24724
297.15	1061.17	4.24468
298.15	1060.53	4.24212
299.15	1059.89	4.23956
300.15	1059.26	4.23704
301.15	1058.62	4.23448
302.15	1057.99	4.23196
303.15	1057.35	4.2294
304.15	1056.72	4.22688
305.15	1056.09	4.22436
306.15	1055.45	4.2218
307.15	1054.82	4.21928
308.15	1054.19	4.21676
309.15	1053.56	4.21424
310.15	1052.93	4.21172
311.15	1052.31	4.20924
312.15	1051.68	4.20672
313.15	1051.05	4.2042
314.15	1050.43	4.20172
318.15	1047.94	4.19176
319.15	1047.32	4.18928
320.15	1046.7	4.1868
321.15	1046.08	4.18432
322.15	1045.46	4.18184
323.15	1044.84	4.17936
324.15	1044.22	4.17688
325.15	1043.61	4.17444
326.15	1042.99	4.17196
327.15	1042.37	4.16948
328.15	1041.76	4.16704
329.15	1041.14	4.16456
330.15	1040.53	4.16212
331.15	1039.92	4.15968
332.15	1039.3	4.1572
333.15	1038.69	4.15476
334.15	1038.08	4.15232
335.15	1037.47	4.14988
336.15	1036.86	4.14744
337.15	1036.25	4.145
338.15	1035.64	4.14256
339.15	1035.03	4.14012
343.15	1032.61	4.13044
344.15	1032	4.128
345.15	1031.4	4.1256
346.15	1030.79	4.12316
347.15	1030.19	4.12076
348.15	1029.59	4.11836
349.15	1028.98	4.11592
350.15	1028.38	4.11352
351.15	1027.78	4.11112
352.15	1027.18	4.10872
353.15	1026.58	4.10632
354.15	1025.98	4.10392
355.15	1025.38	4.10152
356.15	1024.79	4.09916
357.15	1024.19	4.09676
358.15	1023.59	4.09436
359.15	1022.99	4.09196
360.15	1022.4	4.0896
361.15	1021.8	4.0872
362.15	1021.21	4.08484
363.15	1020.61	4.08244
315.15	1049.8	4.1992
316.15	1049.18	4.19672
317.15	1048.56	4.19424
340.15	1034.42	4.13768
341.15	1033.82	4.13528
342.15	1033.21	4.13284

System: 1-butyl-3-methylimidazolium dicyanamide; phases: Liquid
Property: Mass density, kg/m3 (Liquid); method: Vibrating tube method
Temperature, K	Pressure, kPa	Mass density, kg/m3	uncertainty
293.15	100	1064.4	4.2576
293.15	250	1064.4	4.2576
293.15	500	1064.5	4.258
293.15	1000	1064.7	4.2588
293.15	2000	1065.1	4.2604
293.15	4990	1066.2	4.2648
293.15	10010	1068.2	4.2728
293.15	15000	1070	4.28
293.15	20000	1071.9	4.2876
293.15	25000	1073.6	4.2944
293.15	30000	1075.4	4.3016
293.15	35000	1077.1	4.3084
293.15	40000	1078.9	4.3156
293.15	45000	1080.5	4.322
293.15	50000	1082.2	4.3288
293.15	55000	1083.8	4.3352
293.15	60000	1085.4	4.3416
303.15	100	1057.9	4.2316
303.15	250	1057.9	4.2316
303.15	500	1058	4.232
303.15	1000	1058.2	4.2328
303.15	2000	1058.6	4.2344
303.15	4990	1059.8	4.2392
303.15	10000	1061.8	4.2472
303.15	14990	1063.6	4.2544
303.15	20010	1065.5	4.262
303.15	25000	1067.4	4.2696
303.15	30000	1069.2	4.2768
303.15	34990	1070.9	4.2836
303.15	40000	1072.7	4.2908
303.15	45000	1074.4	4.2976
303.15	50000	1076.1	4.3044
303.15	55000	1077.8	4.3112
303.15	60000	1079.4	4.3176
313.15	100	1051.5	4.206
313.15	250	1051.5	4.206
313.15	500	1051.6	4.2064
313.15	1000	1051.8	4.2072
313.15	2000	1052.3	4.2092
313.15	4990	1053.4	4.2136
313.15	10000	1055.5	4.222
313.15	14990	1057.4	4.2296
313.15	20010	1059.4	4.2376
313.15	25000	1061.2	4.2448
313.15	30000	1063.1	4.2524
313.15	35000	1064.9	4.2596
313.15	40010	1066.7	4.2668
313.15	45000	1068.4	4.2736
313.15	50000	1070.2	4.2808
313.15	55010	1071.9	4.2876
313.15	60000	1073.6	4.2944
323.15	100	1045.2	4.1808
323.15	250	1045.3	4.1812
323.15	500	1045.4	4.1816
323.15	1000	1045.6	4.1824
323.15	2010	1046	4.184
323.15	4990	1047.3	4.1892
323.15	10010	1049.3	4.1972
323.15	14990	1051.3	4.2052
323.15	20010	1053.3	4.2132
323.15	25000	1055.2	4.2208
323.15	30010	1057.1	4.2284
323.15	34990	1058.9	4.2356
323.15	40000	1060.8	4.2432
323.15	45000	1062.6	4.2504
323.15	50000	1064.4	4.2576
323.15	55000	1066.1	4.2644
323.15	60000	1067.8	4.2712
333.15	100	1039	4.156
333.15	250	1039.1	4.1564
333.15	500	1039.2	4.1568
333.15	1000	1039.4	4.1576
333.15	2000	1039.9	4.1596
333.15	4990	1041.1	4.1644
333.15	10000	1043.2	4.1728
333.15	15000	1045.2	4.1808
333.15	20000	1047.3	4.1892
333.15	25000	1049.2	4.1968
333.15	30000	1051.3	4.2052
333.15	34990	1053.1	4.2124
333.15	40000	1055	4.22
333.15	45010	1056.8	4.2272
333.15	50000	1058.6	4.2344
333.15	55000	1060.4	4.2416
333.15	60000	1062.2	4.2488
343.15	100	1032.9	4.1316
343.15	250	1033	4.132
343.15	500	1033.1	4.1324
343.15	1000	1033.3	4.1332
343.15	2000	1033.7	4.1348
343.15	4990	1035	4.14
343.15	10010	1037.2	4.1488
343.15	15000	1039.2	4.1568
343.15	20010	1041.4	4.1656
343.15	25000	1043.3	4.1732
343.15	30000	1045.4	4.1816
343.15	35010	1047.3	4.1892
343.15	40000	1049.3	4.1972
343.15	45000	1051.1	4.2044
343.15	50000	1053	4.212
343.15	55000	1054.7	4.2188
343.15	60000	1056.6	4.2264
353.15	100	1026.8	4.1072
353.15	250	1026.9	4.1076
353.15	500	1027	4.108
353.15	1000	1027.2	4.1088
353.15	2000	1027.7	4.1108
353.15	5000	1029	4.116
353.15	10000	1031.3	4.1252
353.15	15000	1033.4	4.1336
353.15	20000	1035.5	4.142
353.15	25000	1037.5	4.15
353.15	30010	1039.6	4.1584
353.15	35000	1041.6	4.1664
353.15	40000	1043.6	4.1744
353.15	45000	1045.4	4.1816
353.15	50000	1047.4	4.1896
353.15	55000	1049.2	4.1968
353.15	60000	1051	4.204
363.15	100	1020.8	4.0832
363.15	250	1020.9	4.0836
363.15	500	1021	4.084
363.15	1000	1021.3	4.0852
363.15	2000	1021.7	4.0868
363.15	4990	1023.1	4.0924
363.15	10000	1025.4	4.1016
363.15	14990	1027.6	4.1104
363.15	20010	1029.8	4.1192
363.15	25010	1031.8	4.1272
363.15	30000	1033.9	4.1356
363.15	35000	1035.9	4.1436
363.15	40000	1038	4.152
363.15	45000	1039.9	4.1596
363.15	50000	1041.8	4.1672
363.15	55000	1043.7	4.1748
363.15	60000	1045.6	4.1824
373.15	100	1014.9	4.0596
373.15	250	1015	4.06
373.15	500	1015.1	4.0604
373.15	1000	1015.4	4.0616
373.15	2000	1015.8	4.0632
373.15	4990	1017.2	4.0688
373.15	10000	1019.5	4.078
373.15	15000	1021.8	4.0872
373.15	20000	1024	4.096
373.15	25000	1026.2	4.1048
373.15	30000	1028.3	4.1132
373.15	35000	1030.3	4.1212
373.15	40000	1032.4	4.1296
373.15	45000	1034.4	4.1376
373.15	50000	1036.4	4.1456
373.15	55000	1038.3	4.1532
373.15	60000	1040.2	4.1608
393.15	100	1003.2	4.0128
393.15	250	1003.3	4.0132
393.15	500	1003.4	4.0136
393.15	1000	1003.7	4.0148
393.15	2000	1004.1	4.0164
393.15	4990	1005.6	4.0224
393.15	10010	1008.1	4.0324
393.15	15000	1010.4	4.0416
393.15	20010	1012.8	4.0512
393.15	25000	1015	4.06
393.15	30000	1017.2	4.0688
393.15	35000	1019.4	4.0776
393.15	40000	1021.6	4.0864
393.15	45000	1023.6	4.0944
393.15	50000	1025.7	4.1028
393.15	55000	1027.7	4.1108
393.15	60000	1029.6	4.1184

System: 1-butyl-3-methylimidazolium dicyanamide; phases: Liquid
Fixed: Pressure, kPa = 101.325
Property: Molar heat capacity at constant pressure, J/K/mol (Liquid); method: Differential Scanning Calorimetry
Temperature, K	Molar heat capacity at constant pressure, J/K/mol	uncertainty
308.16	381.78	5.7267
313.16	384.86	5.7729
318.16	382.81	5.74215
323.16	386.92	5.8038
328.22	386.92	5.8038
333.22	388.97	5.83455
338.19	391.02	5.8653
343.18	392.05	5.88075
348.25	394.1	5.9115
353.18	395.13	5.92695
358.25	396.15	5.94225
363.18	399.23	5.98845

System: water + 1-ethyl-3-methylimidazolium ethyl sulfate; phases: Liquid
Fixed: Mole fraction of 1-ethyl-3-methylimidazolium ethyl sulfate = 0
Fixed: Pressure, kPa = 101.3
Property: Binary diffusion coefficient, m2/s (Liquid); method: Taylor dispersion method
Temperature, K	Binary diffusion coefficient, m2/s	uncertainty
298.03	0.0000000962	.000000003367
298.03	0.0000000915	.0000000032025
298.03	0.0000000984	.000000003444
298.03	0.0000000979	.0000000034265

System: water + 1-butyl-3-methylimidazolium bis[(trifluoromethyl)sulfonyl]imide; phases: Liquid
Fixed: Mole fraction of water = 0
Fixed: Pressure, kPa = 101.3
Property: Binary diffusion coefficient, m2/s (Liquid); method: Taylor dispersion method
Temperature, K	Binary diffusion coefficient, m2/s	uncertainty
298.03	0.0000000369	.0000000012915
298.03	0.0000000397	.0000000013895
298.03	0.0000000413	.0000000014455
298.03	0.000000039	.000000001365

System: water + 1-butyl-3-methylimidazolium dicyanamide; phases: Liquid
Fixed: Mole fraction of water = 0
Fixed: Pressure, kPa = 101.3
Property: Binary diffusion coefficient, m2/s (Liquid); method: Taylor dispersion method
Temperature, K	Binary diffusion coefficient, m2/s	uncertainty
298.03	0.0000000208	.000000000728
298.03	0.0000000213	.0000000007455
298.03	0.0000000211	.0000000007385
298.03	0.0000000203	.0000000007105
298.03	0.0000000198	.000000000693
298.03	0.0000000205	.0000000007175
298.03	0.00000002	.0000000007
298.03	0.0000000228	.000000000798
