Measured thermophysical data. Solubility of citric, malonic, and malic acids in different solvents from 303.2 to  333.2 K
Source: Fluid Phase Equilib., 2011, 10.1016/j.fluid.2011.09.033
Compound 1: citric acid, C6H8O7, purity 99%
Compound 2: hydroxybutanedioic acid, C4H6O5, purity 99%
Compound 3: propanedioic acid, C3H4O4, purity 99%
Compound 4: ethanol, C2H6O, purity 99.9%
Compound 5: 1,4-dioxane, C4H8O2, purity 99.9%
Compound 6: ethyl ethanoate, C4H8O2, purity 99.9%
Compound 7: ethanonitrile, C2H3N, purity 99.9%
Compound 8: oxacyclopentane, C4H8O, purity 99.9%
Compound 9: 2-propanol, C3H8O, purity 99.9%
Compound 10: water, H2O, purity 99.9%

System: ethanol + citric acid; phases: Liquid, Crystal
Fixed: Pressure, kPa = 101
Property: Mole fraction of citric acid (Liquid); method: Mass of residue in vacuum oven
Temperature, K	Mole fraction of citric acid	uncertainty
303.15	.0505	.001466
308.15	.0629	.004132
313.15	.0685	.002006
318.15	.076	.004396
323.15	.0877	.003332
328.15	.1092	.005444
333.15	.1247	.005434

System: citric acid + 1,4-dioxane; phases: Liquid, Crystal
Fixed: Pressure, kPa = 101
Property: Mole fraction of citric acid (Liquid); method: Mass of residue in vacuum oven
Temperature, K	Mole fraction of citric acid	uncertainty
303.15	.0604	.002524
308.15	.0808	.004016
313.15	.1126	.010694
318.15	.1295	.00322
323.15	.1421	.00459
328.15	.154	.003216
333.15	.1642	.008112

System: citric acid + water; phases: Liquid, Crystal
Fixed: Pressure, kPa = 101
Property: Mole fraction of citric acid (Liquid); method: Mass of residue in vacuum oven
Temperature, K	Mole fraction of citric acid	uncertainty
303.15	.0578	.005882
308.15	.0746	.002646
313.15	.0913	.002962
318.15	.1162	.007236
323.15	.1408	.003144
328.15	.156	.006984
333.15	.174	.00509

System: ethanonitrile + citric acid; phases: Liquid, Crystal
Fixed: Pressure, kPa = 101
Property: Mole fraction of citric acid (Liquid); method: Mass of residue in vacuum oven
Temperature, K	Mole fraction of citric acid	uncertainty
303.15	.0473	.00452
308.15	.0552	.004128
313.15	.0617	.001728
318.15	.0642	.002134
323.15	.0703	.001046
328.15	.0764	.001292
333.15	.0798	.007088

System: 2-propanol + citric acid; phases: Liquid, Crystal
Fixed: Pressure, kPa = 101
Property: Mole fraction of citric acid (Liquid); method: Mass of residue in vacuum oven
Temperature, K	Mole fraction of citric acid	uncertainty
303.15	.0163	.001418
308.15	.0285	.00294
313.15	.0524	.002912
318.15	.0639	.005388
323.15	.0841	.00356
328.15	.1011	.004256
333.15	.118	.0104

System: citric acid + oxacyclopentane; phases: Liquid, Crystal
Fixed: Pressure, kPa = 101
Property: Mole fraction of citric acid (Liquid); method: Mass of residue in vacuum oven
Temperature, K	Mole fraction of citric acid	uncertainty
303.15	.1302	.006326
308.15	.136	.005626
313.15	.1396	.00849
318.15	.1541	.011816
323.15	.1763	.0075
328.15	.2069	.017422
333.15	.2205	.013246

System: ethanol + propanedioic acid; phases: Liquid, Crystal
Fixed: Pressure, kPa = 101
Property: Mole fraction of propanedioic acid (Liquid); method: Mass of residue in vacuum oven
Temperature, K	Mole fraction of propanedioic acid	uncertainty
303.15	.1046	.005684
308.15	.1163	.003692
313.15	.1248	.002806
318.15	.1366	.004
323.15	.1409	.009888
328.15	.1527	.005302
333.15	.1587	.00171

System: 1,4-dioxane + propanedioic acid; phases: Liquid, Crystal
Fixed: Pressure, kPa = 101
Property: Mole fraction of propanedioic acid (Liquid); method: Mass of residue in vacuum oven
Temperature, K	Mole fraction of propanedioic acid	uncertainty
303.15	.1821	.003292
308.15	.2262	.007804
313.15	.2641	.018158
318.15	.2781	.011348
323.15	.3068	.009164
328.15	.3323	.015656
333.15	.3622	.008668

System: propanedioic acid + water; phases: Liquid, Crystal
Fixed: Pressure, kPa = 101
Property: Mole fraction of propanedioic acid (Liquid); method: Mass of residue in vacuum oven
Temperature, K	Mole fraction of propanedioic acid	uncertainty
303.15	.1263	.004468
308.15	.1446	.007666
313.15	.1628	.009744
318.15	.1836	.00587
323.15	.2081	.017848
328.15	.2261	.008116
333.15	.2442	.005822

System: ethanonitrile + propanedioic acid; phases: Liquid, Crystal
Fixed: Pressure, kPa = 101
Property: Mole fraction of propanedioic acid (Liquid); method: Mass of residue in vacuum oven
Temperature, K	Mole fraction of propanedioic acid	uncertainty
303.15	.0533	.003404
308.15	.0659	.003426
313.15	.0807	.00202
318.15	.0868	.002518
323.15	.0985	.008248
328.15	.1269	.003142
333.15	.1421	.00709

System: 2-propanol + propanedioic acid; phases: Liquid, Crystal
Fixed: Pressure, kPa = 101
Property: Mole fraction of propanedioic acid (Liquid); method: Mass of residue in vacuum oven
Temperature, K	Mole fraction of propanedioic acid	uncertainty
303.15	.1078	.007126
308.15	.1267	.002634
313.15	.1438	.005992
318.15	.1512	.004506
323.15	.1589	.002724
328.15	.167	.004848
333.15	.1725	.007472

System: oxacyclopentane + propanedioic acid; phases: Liquid, Crystal
Fixed: Pressure, kPa = 101
Property: Mole fraction of propanedioic acid (Liquid); method: Mass of residue in vacuum oven
Temperature, K	Mole fraction of propanedioic acid	uncertainty
303.15	.2166	.011324
308.15	.2547	.016784
313.15	.2962	.015148
318.15	.3134	.00389
323.15	.3566	.013668
328.15	.3793	.013584
333.15	.4209	.015006

System: ethanol + hydroxybutanedioic acid; phases: Liquid, Crystal
Fixed: Pressure, kPa = 101
Property: Mole fraction of hydroxybutanedioic acid (Liquid); method: Mass of residue in vacuum oven
Temperature, K	Mole fraction of hydroxybutanedioic acid	uncertainty
303.15	.0819	.006366
308.15	.0912	.00256
313.15	.1005	.009022
318.15	.1153	.006468
323.15	.1205	.002492
328.15	.1285	.002316
333.15	.1343	.004748

System: 1,4-dioxane + hydroxybutanedioic acid; phases: Liquid, Crystal
Fixed: Pressure, kPa = 101
Property: Mole fraction of hydroxybutanedioic acid (Liquid); method: Mass of residue in vacuum oven
Temperature, K	Mole fraction of hydroxybutanedioic acid	uncertainty
303.15	.1402	.010552
308.15	.1534	.013916
313.15	.16	.004566
318.15	.1684	.006102
323.15	.1766	.012326
328.15	.192	.005802
333.15	.2104	.009406

System: hydroxybutanedioic acid + water; phases: Liquid, Crystal
Fixed: Pressure, kPa = 101
Property: Mole fraction of hydroxybutanedioic acid (Liquid); method: Mass of residue in vacuum oven
Temperature, K	Mole fraction of hydroxybutanedioic acid	uncertainty
303.15	.0661	.002162
308.15	.0838	.006826
313.15	.106	.005724
318.15	.132	.005486
323.15	.1539	.007708
328.15	.1699	.002374
333.15	.1839	.00788

System: ethanonitrile + hydroxybutanedioic acid; phases: Liquid, Crystal
Fixed: Pressure, kPa = 101
Property: Mole fraction of hydroxybutanedioic acid (Liquid); method: Mass of residue in vacuum oven
Temperature, K	Mole fraction of hydroxybutanedioic acid	uncertainty
303.15	.0065	.000502
308.15	.0089	.000352
313.15	.0109	.001
318.15	.0122	.000562
323.15	.015	.001418
328.15	.0173	.000658
333.15	.0205	.009312

System: 2-propanol + hydroxybutanedioic acid; phases: Liquid, Crystal
Fixed: Pressure, kPa = 101
Property: Mole fraction of hydroxybutanedioic acid (Liquid); method: Mass of residue in vacuum oven
Temperature, K	Mole fraction of hydroxybutanedioic acid	uncertainty
303.15	.0364	.003112
308.15	.0447	.004384
313.15	.0546	.004572
318.15	.0713	.003906
323.15	.0942	.003818
328.15	.1178	.00366
333.15	.1343	.006886

System: oxacyclopentane + hydroxybutanedioic acid; phases: Liquid, Crystal
Fixed: Pressure, kPa = 101
Property: Mole fraction of hydroxybutanedioic acid (Liquid); method: Mass of residue in vacuum oven
Temperature, K	Mole fraction of hydroxybutanedioic acid	uncertainty
303.15	.1447	.002556
308.15	.156	.007038
313.15	.1914	.011638
318.15	.1993	.004794
323.15	.2187	.006458
328.15	.2348	.009454
333.15	.2531	.017868
