Measured thermophysical data. Effect of polarity and temperature on the binary interaction between D2EHPA extractant and organic solvents (kerosene, n-heptane, chlorobenzene and 1-octanol): Experimental and thermodynamics
Source: Fluid Phase Equilib., 2017, 10.1016/j.fluid.2016.11.029
Compound 1: bis(2-ethylhexyl) phosphate, C16H35O4P, purity 99.8%
Compound 2: n-heptane, C7H16, purity 99.7%
Compound 3: chlorobenzene, C6H5Cl, purity 99.8%
Compound 4: 1-octanol, C8H18O, purity 99.7%

System: bis(2-ethylhexyl) phosphate; phases: Liquid
Fixed: Pressure, kPa = 101.325
Property: Mass density, kg/m3 (Liquid); method: Vibrating tube method
Temperature, K	Mass density, kg/m3	uncertainty
303.15	965.3	
313.15	957.9	
323.15	950.4	
333.15	942.9	

System: bis(2-ethylhexyl) phosphate; phases: Liquid
Fixed: Pressure, kPa = 101.325
Property: Viscosity, Pa*s (Liquid); method: Capillary tube (Ostwald; Ubbelohde) method
Temperature, K	Viscosity, Pa*s	uncertainty
303.15	.02026	
313.15	.01632	
323.15	.008559	
333.15	.00583	

System: n-heptane; phases: Liquid
Fixed: Pressure, kPa = 101.325
Property: Mass density, kg/m3 (Liquid); method: Vibrating tube method
Temperature, K	Mass density, kg/m3	uncertainty
303.15	675.4	
313.15	666.8	
323.15	657.7	
333.15	648.4	

System: n-heptane; phases: Liquid
Fixed: Pressure, kPa = 101.325
Property: Viscosity, Pa*s (Liquid); method: Capillary tube (Ostwald; Ubbelohde) method
Temperature, K	Viscosity, Pa*s	uncertainty
303.15	.000369	
313.15	.000334	
323.15	.0003039	
333.15	.0002755	

System: chlorobenzene; phases: Liquid
Fixed: Pressure, kPa = 101.325
Property: Mass density, kg/m3 (Liquid); method: Vibrating tube method
Temperature, K	Mass density, kg/m3	uncertainty
303.15	1095.7	
313.15	1084.8	
323.15	1073.8	
333.15	1062.8	

System: chlorobenzene; phases: Liquid
Fixed: Pressure, kPa = 101.325
Property: Viscosity, Pa*s (Liquid); method: Capillary tube (Ostwald; Ubbelohde) method
Temperature, K	Viscosity, Pa*s	uncertainty
303.15	.0007126	
313.15	.0006323	
323.15	.0005701	
333.15	.0005069	

System: 1-octanol; phases: Liquid
Fixed: Pressure, kPa = 101.325
Property: Mass density, kg/m3 (Liquid); method: Vibrating tube method
Temperature, K	Mass density, kg/m3	uncertainty
303.15	818.3	
313.15	811.2	
323.15	804.2	
333.15	796.9	

System: 1-octanol; phases: Liquid
Fixed: Pressure, kPa = 101.325
Property: Viscosity, Pa*s (Liquid); method: Capillary tube (Ostwald; Ubbelohde) method
Temperature, K	Viscosity, Pa*s	uncertainty
303.15	.006201	
313.15	.00458	
323.15	.003369	
333.15	.002585	

System: n-heptane + bis(2-ethylhexyl) phosphate; phases: Liquid
Fixed: Pressure, kPa = 101
Property: Mass density, kg/m3 (Liquid); method: Vibrating tube method
Temperature, K	Mole fraction of bis(2-ethylhexyl) phosphate	Mass density, kg/m3	uncertainty
303.15	0	675.4	
303.15	.0334	696.7	
303.15	.0721	719.4	
303.15	.1175	743.4	
303.15	.1661	766.6	
303.15	.2371	796.5	
303.15	.3181	825.8	
303.15	.4202	856.8	
303.15	.5541	890.4	
303.15	.7367	926.4	
303.15	1	965.3	
313.15	0	666.8	
313.15	.0334	688.3	
313.15	.0721	711	
313.15	.1175	735	
313.15	.1661	758.3	
313.15	.2371	788.4	
313.15	.3181	818	
313.15	.4202	849.1	
313.15	.5541	882.6	
313.15	.7367	918.9	
313.15	1	957.9	
323.15	0	657.7	
323.15	.0334	679.2	
323.15	.0721	702.3	
323.15	.1175	726.6	
323.15	.1661	749.9	
323.15	.2371	780	
323.15	.3181	809.6	
323.15	.4202	841	
323.15	.5541	874.8	
323.15	.7367	911.6	
323.15	1	950.4	
333.15	0	648.4	
333.15	.0334	670.3	
333.15	.0721	693.3	
333.15	.1175	717.6	
333.15	.1661	741.1	
333.15	.2371	771.4	
333.15	.3181	801.2	
333.15	.4202	832.7	
333.15	.5541	867	
333.15	.7367	904	
333.15	1	942.9	

System: n-heptane + bis(2-ethylhexyl) phosphate; phases: Liquid
Fixed: Pressure, kPa = 101
Property: Viscosity, Pa*s (Liquid); method: Capillary tube (Ostwald; Ubbelohde) method
Temperature, K	Mole fraction of bis(2-ethylhexyl) phosphate	Viscosity, Pa*s	uncertainty
303.15	0	.000369	
303.15	.0334	.0004827	
303.15	.0721	.0006407	
303.15	.1175	.000866	
303.15	.1661	.00116	
303.15	.2371	.001699	
303.15	.3181	.002494	
303.15	.4202	.003805	
303.15	.5541	.006131	
303.15	.7367	.0106	
303.15	1	.02025	
313.15	0	.000334	
313.15	.0334	.0004218	
313.15	.0721	.0005411	
313.15	.1175	.0007073	
313.15	.1661	.00092	
313.15	.2371	.001301	
313.15	.3181	.001851	
313.15	.4202	.002738	
313.15	.5541	.004282	
313.15	.7367	.007192	
313.15	1	.01335	
323.15	0	.0003039	
323.15	.0334	.0003705	
323.15	.0721	.0004589	
323.15	.1175	.0005793	
323.15	.1661	.0007299	
323.15	.2371	.0009935	
323.15	.3181	.001364	
323.15	.4202	.00195	
323.15	.5541	.002944	
323.15	.7367	.004774	
323.15	1	.008558	
333.15	0	.0002755	
333.15	.0334	.0003272	
333.15	.0721	.0003947	
333.15	.1175	.000485	
333.15	.1661	.000596	
333.15	.2371	.0007866	
333.15	.3181	.001049	
333.15	.4202	.001456	
333.15	.5541	.002134	
333.15	.7367	.003356	
333.15	1	.00583	

System: chlorobenzene + bis(2-ethylhexyl) phosphate; phases: Liquid
Fixed: Pressure, kPa = 101
Property: Mass density, kg/m3 (Liquid); method: Vibrating tube method
Temperature, K	Mole fraction of bis(2-ethylhexyl) phosphate	Mass density, kg/m3	uncertainty
303.15	0	1095.7	
303.15	.0374	1082.4	
303.15	.0804	1069.1	
303.15	.1303	1055.7	
303.15	.1888	1042.4	
303.15	.2587	1029.2	
303.15	.3436	1016.4	
303.15	.4481	1003.4	
303.15	.5826	990.4	
303.15	.7584	978	
303.15	1	965.3	
313.15	0	1084.8	
313.15	.0374	1075.8	
313.15	.0804	1067.2	
313.15	.1303	1058.7	
313.15	.1888	1050.3	
313.15	.2587	1042	
313.15	.3436	1008.9	
313.15	.4481	994.9	
313.15	.5826	982.9	
313.15	.7584	973.5	
313.15	1	957.9	
323.15	0	1073.8	
323.15	.0374	1065.3	
323.15	.0804	1057	
323.15	.1303	1048.8	
323.15	.1888	1040.8	
323.15	.2587	1032.9	
323.15	.3436	1000.1	
323.15	.4481	986.5	
323.15	.5826	974.8	
323.15	.7584	965.7	
323.15	1	950.4	
333.15	0	1062.8	
333.15	.0374	1054.7	
333.15	.0804	1046.7	
333.15	.1303	1039	
333.15	.1888	1031.3	
333.15	.2587	1023.7	
333.15	.3436	991.3	
333.15	.4481	978	
333.15	.5826	966.5	
333.15	.7584	957.9	
333.15	1	942.9	

System: chlorobenzene + bis(2-ethylhexyl) phosphate; phases: Liquid
Fixed: Pressure, kPa = 101
Property: Viscosity, Pa*s (Liquid); method: Capillary tube (Ostwald; Ubbelohde) method
Temperature, K	Mole fraction of bis(2-ethylhexyl) phosphate	Viscosity, Pa*s	uncertainty
303.15	0	.0007126	
303.15	.0374	.0008898	
303.15	.0804	.001127	
303.15	.1303	.00145	
303.15	.1888	.001903	
303.15	.2587	.002556	
303.15	.3436	.003531	
303.15	.4481	.005039	
303.15	.5826	.007539	
303.15	.7584	.0119	
303.15	1	.02025	
313.15	0	.0006323	
313.15	.0374	.000766	
313.15	.0804	.0009413	
313.15	.1303	.001176	
313.15	.1888	.001498	
313.15	.2587	.001953	
313.15	.3436	.002619	
313.15	.4481	.003629	
313.15	.5826	.005271	
313.15	.7584	.008078	
313.15	1	.01335	
323.15	0	.0005701	
323.15	.0374	.0006693	
323.15	.0804	.0007965	
323.15	.1303	.0009633	
323.15	.1888	.001187	
323.15	.2587	.001497	
323.15	.3436	.001939	
323.15	.4481	.002595	
323.15	.5826	.003637	
323.15	.7584	.005374	
323.15	1	.008558	
333.15	0	.0005069	
333.15	.0374	.0005819	
333.15	.0804	.0006767	
333.15	.1303	.000799	
333.15	.1888	.0009603	
333.15	.2587	.00118	
333.15	.3436	.001488	
333.15	.4481	.001937	
333.15	.5826	.002636	
333.15	.7584	.003779	
333.15	1	.00583	

System: 1-octanol + bis(2-ethylhexyl) phosphate; phases: Liquid
Fixed: Pressure, kPa = 101
Property: Mass density, kg/m3 (Liquid); method: Vibrating tube method
Temperature, K	Mole fraction of bis(2-ethylhexyl) phosphate	Mass density, kg/m3	uncertainty
303.15	0	812	
303.15	.0433	825.5	
303.15	.0919	839.3	
303.15	.1474	853.3	
303.15	.2125	868	
303.15	.288	882.9	
303.15	.377	898.4	
303.15	.4848	914.3	
303.15	.6176	930.7	
303.15	.7843	947.7	
303.15	1	965.3	
313.15	0	811.2	
313.15	.0433	824.4	
313.15	.0919	837.5	
313.15	.1474	850.9	
313.15	.2125	865	
313.15	.288	879.4	
313.15	.377	894.1	
313.15	.4848	909.3	
313.15	.6176	925	
313.15	.7843	941.2	
313.15	1	957.9	
323.15	0	804.2	
323.15	.0433	817.3	
323.15	.0919	830.4	
323.15	.1474	843.8	
323.15	.2125	857.8	
323.15	.288	872.2	
323.15	.377	886.9	
323.15	.4848	902	
323.15	.6176	917.6	
323.15	.7843	933.7	
323.15	1	950.4	
333.15	0	796.9	
333.15	.0433	810	
333.15	.0919	823.1	
333.15	.1474	836.5	
333.15	.2125	850.5	
333.15	.288	864.8	
333.15	.377	879.4	
333.15	.4848	894.5	
333.15	.6176	910.1	
333.15	.7843	926.2	
333.15	1	942.9	

System: 1-octanol + bis(2-ethylhexyl) phosphate; phases: Liquid
Fixed: Pressure, kPa = 101
Property: Viscosity, Pa*s (Liquid); method: Capillary tube (Ostwald; Ubbelohde) method
Temperature, K	Mole fraction of bis(2-ethylhexyl) phosphate	Viscosity, Pa*s	uncertainty
303.15	0	.006201	
303.15	.0433	.006599	
303.15	.0919	.007065	
303.15	.1474	.007624	
303.15	.2125	.008316	
303.15	.288	.00917	
303.15	.377	.01025	
303.15	.4848	.01166	
303.15	.6176	.01358	
303.15	.7843	.01627	
303.15	1	.02025	
313.15	0	.00458	
313.15	.0433	.00484	
313.15	.0919	.005143	
313.15	.1474	.005504	
313.15	.2125	.005948	
313.15	.288	.006493	
313.15	.377	.007177	
313.15	.4848	.008068	
313.15	.6176	.009263	
313.15	.7843	.01092	
313.15	1	.01335	
323.15	0	.003369	
323.15	.0433	.003531	
323.15	.0919	.003719	
323.15	.1474	.003942	
323.15	.2125	.004214	
323.15	.288	.004545	
323.15	.377	.004957	
323.15	.4848	.005489	
323.15	.6176	.006195	
323.15	.7843	.007162	
323.15	1	.008558	
333.15	0	.002585	
333.15	.0433	.002691	
333.15	.0919	.002813	
333.15	.1474	.002958	
333.15	.2125	.003133	
333.15	.288	.003345	
333.15	.377	.003606	
333.15	.4848	.003941	
333.15	.6176	.004382	
333.15	.7843	.004979	
333.15	1	.00583	
