Measured thermophysical data. tert-Butyl chloride as a probe of the solvophobic effects
Source: Fluid Phase Equilib., 2014, 10.1016/j.fluid.2014.09.011
Compound 1: tert-butyl chloride, C4H9Cl, purity 99%
Compound 2: methanol, CH4O, purity 99%
Compound 3: 2-propanol, C3H8O, purity 99%
Compound 4: 1,2-ethanediol, C2H6O2, purity 99%
Compound 5: 1,2-propanediol, C3H8O2, purity 99%
Compound 6: 1,2-butanediol, C4H10O2, purity 98%
Compound 7: 1,3-butanediol, C4H10O2, purity 99%
Compound 8: 2,3-butanediol, isomer not specified, C4H10O2, purity 98%
Compound 9: diethylene glycol, C4H10O3, purity 99%
Compound 10: triethylene glycol, C6H14O4, purity 99%
Compound 11: 2-methoxyethanol, C3H8O2, purity 99%
Compound 12: N-methylformamide, C2H5NO, purity 99%
Compound 13: n-heptane, C7H16, purity 99%
Compound 14: n-octane, C8H18, purity 99%
Compound 15: benzene, C6H6, purity 99%
Compound 16: ethanol, C2H6O, purity 99%
Compound 17: 1-propanol, C3H8O, purity 99%
Compound 18: 1-butanol, C4H10O, purity 99%
Compound 19: 1-pentanol, C5H12O, purity 99%
Compound 20: 1-hexanol, C6H14O, purity 99%
Compound 21: cyclohexane, C6H12, purity 99.5%
Compound 22: 1,2-dichloroethane, C2H4Cl2, purity 99%
Compound 23: ethyl acetate, C4H8O2, purity 99%

System: methanol + tert-butyl chloride; phases: Liquid
Fixed: Pressure, kPa = 100
Fixed: Temperature, K = 298.15
Property: Molar enthalpy of solution, kJ/mol (Liquid); method: Titration calorimetry
Mole fraction of tert-butyl chloride	Molar enthalpy of solution, kJ/mol	uncertainty
0	1.43	.05

System: methanol + tert-butyl chloride; phases: Liquid
Fixed: Pressure, kPa = 238
Fixed: Temperature, K = 298.15
Property: Activity coefficient of tert-butyl chloride (Liquid); method: Chromatography
Mole fraction of tert-butyl chloride	Activity coefficient of tert-butyl chloride	uncertainty
0	6.1	.1

System: ethanol + tert-butyl chloride; phases: Liquid
Fixed: Pressure, kPa = 238
Fixed: Temperature, K = 298.15
Property: Activity coefficient of tert-butyl chloride (Liquid); method: Chromatography
Mole fraction of tert-butyl chloride	Activity coefficient of tert-butyl chloride	uncertainty
0	4.5	.3

System: 1-propanol + tert-butyl chloride; phases: Liquid
Fixed: Pressure, kPa = 238
Fixed: Temperature, K = 298.15
Property: Activity coefficient of tert-butyl chloride (Liquid); method: Chromatography
Mole fraction of tert-butyl chloride	Activity coefficient of tert-butyl chloride	uncertainty
0	3.1	.2

System: 2-propanol + tert-butyl chloride; phases: Liquid
Fixed: Pressure, kPa = 100
Fixed: Temperature, K = 298.15
Property: Molar enthalpy of solution, kJ/mol (Liquid); method: Titration calorimetry
Mole fraction of tert-butyl chloride	Molar enthalpy of solution, kJ/mol	uncertainty
0	3.43	.05

System: 2-propanol + tert-butyl chloride; phases: Liquid
Fixed: Pressure, kPa = 238
Fixed: Temperature, K = 298.15
Property: Activity coefficient of tert-butyl chloride (Liquid); method: Chromatography
Mole fraction of tert-butyl chloride	Activity coefficient of tert-butyl chloride	uncertainty
0	3	.3

System: 1-butanol + tert-butyl chloride; phases: Liquid
Fixed: Pressure, kPa = 238
Fixed: Temperature, K = 298.15
Property: Activity coefficient of tert-butyl chloride (Liquid); method: Chromatography
Mole fraction of tert-butyl chloride	Activity coefficient of tert-butyl chloride	uncertainty
0	2.4	.2

System: 1-pentanol + tert-butyl chloride; phases: Liquid
Fixed: Pressure, kPa = 238
Fixed: Temperature, K = 298.15
Property: Activity coefficient of tert-butyl chloride (Liquid); method: Chromatography
Mole fraction of tert-butyl chloride	Activity coefficient of tert-butyl chloride	uncertainty
0	2.4	.2

System: 1-hexanol + tert-butyl chloride; phases: Liquid
Fixed: Pressure, kPa = 238
Fixed: Temperature, K = 298.15
Property: Activity coefficient of tert-butyl chloride (Liquid); method: Chromatography
Mole fraction of tert-butyl chloride	Activity coefficient of tert-butyl chloride	uncertainty
0	2.4	.1

System: 1,2-ethanediol + tert-butyl chloride; phases: Liquid
Fixed: Pressure, kPa = 100
Fixed: Temperature, K = 298.15
Property: Molar enthalpy of solution, kJ/mol (Liquid); method: Titration calorimetry
Mole fraction of tert-butyl chloride	Molar enthalpy of solution, kJ/mol	uncertainty
0	4.8	.5

System: 1,2-ethanediol + tert-butyl chloride; phases: Liquid
Fixed: Pressure, kPa = 238
Fixed: Temperature, K = 298.15
Property: Activity coefficient of tert-butyl chloride (Liquid); method: Chromatography
Mole fraction of tert-butyl chloride	Activity coefficient of tert-butyl chloride	uncertainty
0	51.7	5

System: 1,2-propanediol + tert-butyl chloride; phases: Liquid
Fixed: Pressure, kPa = 100
Fixed: Temperature, K = 298.15
Property: Molar enthalpy of solution, kJ/mol (Liquid); method: Titration calorimetry
Mole fraction of tert-butyl chloride	Molar enthalpy of solution, kJ/mol	uncertainty
0	3.8	.2

System: 1,2-propanediol + tert-butyl chloride; phases: Liquid
Fixed: Pressure, kPa = 238
Fixed: Temperature, K = 298.15
Property: Activity coefficient of tert-butyl chloride (Liquid); method: Chromatography
Mole fraction of tert-butyl chloride	Activity coefficient of tert-butyl chloride	uncertainty
0	17.3	1

System: tert-butyl chloride + 1,2-butanediol; phases: Liquid
Fixed: Pressure, kPa = 100
Fixed: Temperature, K = 298.15
Property: Molar enthalpy of solution, kJ/mol (Liquid); method: Titration calorimetry
Mole fraction of tert-butyl chloride	Molar enthalpy of solution, kJ/mol	uncertainty
0	3	.2

System: tert-butyl chloride + 1,2-butanediol; phases: Liquid
Fixed: Pressure, kPa = 238
Fixed: Temperature, K = 298.15
Property: Activity coefficient of tert-butyl chloride (Liquid); method: Chromatography
Mole fraction of tert-butyl chloride	Activity coefficient of tert-butyl chloride	uncertainty
0	6.4	.2

System: 1,3-butanediol + tert-butyl chloride; phases: Liquid
Fixed: Pressure, kPa = 100
Fixed: Temperature, K = 298.15
Property: Molar enthalpy of solution, kJ/mol (Liquid); method: Titration calorimetry
Mole fraction of tert-butyl chloride	Molar enthalpy of solution, kJ/mol	uncertainty
0	4.3	.3

System: 1,3-butanediol + tert-butyl chloride; phases: Liquid
Fixed: Pressure, kPa = 238
Fixed: Temperature, K = 298.15
Property: Activity coefficient of tert-butyl chloride (Liquid); method: Chromatography
Mole fraction of tert-butyl chloride	Activity coefficient of tert-butyl chloride	uncertainty
0	18.1	1.5

System: tert-butyl chloride + 2,3-butanediol, isomer not specified; phases: Liquid
Fixed: Pressure, kPa = 100
Fixed: Temperature, K = 298.15
Property: Molar enthalpy of solution, kJ/mol (Liquid); method: Titration calorimetry
Mole fraction of tert-butyl chloride	Molar enthalpy of solution, kJ/mol	uncertainty
0	5.1	.2

System: tert-butyl chloride + 2,3-butanediol, isomer not specified; phases: Liquid
Fixed: Pressure, kPa = 238
Fixed: Temperature, K = 298.15
Property: Activity coefficient of tert-butyl chloride (Liquid); method: Chromatography
Mole fraction of tert-butyl chloride	Activity coefficient of tert-butyl chloride	uncertainty
0	12.3	1

System: diethylene glycol + tert-butyl chloride; phases: Liquid
Fixed: Pressure, kPa = 100
Fixed: Temperature, K = 298.15
Property: Molar enthalpy of solution, kJ/mol (Liquid); method: Titration calorimetry
Mole fraction of tert-butyl chloride	Molar enthalpy of solution, kJ/mol	uncertainty
0	2.1	.2

System: diethylene glycol + tert-butyl chloride; phases: Liquid
Fixed: Pressure, kPa = 238
Fixed: Temperature, K = 298.15
Property: Activity coefficient of tert-butyl chloride (Liquid); method: Chromatography
Mole fraction of tert-butyl chloride	Activity coefficient of tert-butyl chloride	uncertainty
0	11.2	1

System: triethylene glycol + tert-butyl chloride; phases: Liquid
Fixed: Pressure, kPa = 100
Fixed: Temperature, K = 298.15
Property: Molar enthalpy of solution, kJ/mol (Liquid); method: Titration calorimetry
Mole fraction of tert-butyl chloride	Molar enthalpy of solution, kJ/mol	uncertainty
0	3.1	.3

System: triethylene glycol + tert-butyl chloride; phases: Liquid
Fixed: Pressure, kPa = 238
Fixed: Temperature, K = 298.15
Property: Activity coefficient of tert-butyl chloride (Liquid); method: Chromatography
Mole fraction of tert-butyl chloride	Activity coefficient of tert-butyl chloride	uncertainty
0	6.8	.4

System: 2-methoxyethanol + tert-butyl chloride; phases: Liquid
Fixed: Pressure, kPa = 100
Fixed: Temperature, K = 298.15
Property: Molar enthalpy of solution, kJ/mol (Liquid); method: Titration calorimetry
Mole fraction of tert-butyl chloride	Molar enthalpy of solution, kJ/mol	uncertainty
0	2.16	.05

System: 2-methoxyethanol + tert-butyl chloride; phases: Liquid
Fixed: Pressure, kPa = 238
Fixed: Temperature, K = 298.15
Property: Activity coefficient of tert-butyl chloride (Liquid); method: Chromatography
Mole fraction of tert-butyl chloride	Activity coefficient of tert-butyl chloride	uncertainty
0	2.9	.2

System: N-methylformamide + tert-butyl chloride; phases: Liquid
Fixed: Pressure, kPa = 100
Fixed: Temperature, K = 298.15
Property: Molar enthalpy of solution, kJ/mol (Liquid); method: Titration calorimetry
Mole fraction of tert-butyl chloride	Molar enthalpy of solution, kJ/mol	uncertainty
0	1.44	.05

System: N-methylformamide + tert-butyl chloride; phases: Liquid
Fixed: Pressure, kPa = 238
Fixed: Temperature, K = 298.15
Property: Activity coefficient of tert-butyl chloride (Liquid); method: Chromatography
Mole fraction of tert-butyl chloride	Activity coefficient of tert-butyl chloride	uncertainty
0	6.3	.1

System: n-heptane + tert-butyl chloride; phases: Liquid
Fixed: Pressure, kPa = 100
Fixed: Temperature, K = 298.15
Property: Molar enthalpy of solution, kJ/mol (Liquid); method: Titration calorimetry
Mole fraction of tert-butyl chloride	Molar enthalpy of solution, kJ/mol	uncertainty
0	2.47	.05

System: n-heptane + tert-butyl chloride; phases: Liquid
Fixed: Pressure, kPa = 238
Fixed: Temperature, K = 298.15
Property: Activity coefficient of tert-butyl chloride (Liquid); method: Chromatography
Mole fraction of tert-butyl chloride	Activity coefficient of tert-butyl chloride	uncertainty
0	1.02	.04

System: n-octane + tert-butyl chloride; phases: Liquid
Fixed: Pressure, kPa = 100
Fixed: Temperature, K = 298.15
Property: Molar enthalpy of solution, kJ/mol (Liquid); method: Titration calorimetry
Mole fraction of tert-butyl chloride	Molar enthalpy of solution, kJ/mol	uncertainty
0	2.47	.05

System: n-octane + tert-butyl chloride; phases: Liquid
Fixed: Pressure, kPa = 238
Fixed: Temperature, K = 298.15
Property: Activity coefficient of tert-butyl chloride (Liquid); method: Chromatography
Mole fraction of tert-butyl chloride	Activity coefficient of tert-butyl chloride	uncertainty
0	1.3	.1

System: cyclohexane + tert-butyl chloride; phases: Liquid
Fixed: Pressure, kPa = 238
Fixed: Temperature, K = 298.15
Property: Activity coefficient of tert-butyl chloride (Liquid); method: Chromatography
Mole fraction of tert-butyl chloride	Activity coefficient of tert-butyl chloride	uncertainty
0	1.2	.1

System: benzene + tert-butyl chloride; phases: Liquid
Fixed: Pressure, kPa = 100
Fixed: Temperature, K = 298.15
Property: Molar enthalpy of solution, kJ/mol (Liquid); method: Titration calorimetry
Mole fraction of tert-butyl chloride	Molar enthalpy of solution, kJ/mol	uncertainty
0	.84	.05

System: benzene + tert-butyl chloride; phases: Liquid
Fixed: Pressure, kPa = 238
Fixed: Temperature, K = 298.15
Property: Activity coefficient of tert-butyl chloride (Liquid); method: Chromatography
Mole fraction of tert-butyl chloride	Activity coefficient of tert-butyl chloride	uncertainty
0	.89	.04

System: 1,2-dichloroethane + tert-butyl chloride; phases: Liquid
Fixed: Pressure, kPa = 238
Fixed: Temperature, K = 298.15
Property: Activity coefficient of tert-butyl chloride (Liquid); method: Chromatography
Mole fraction of tert-butyl chloride	Activity coefficient of tert-butyl chloride	uncertainty
0	.99	.05

System: ethyl acetate + tert-butyl chloride; phases: Liquid
Fixed: Pressure, kPa = 238
Fixed: Temperature, K = 298.15
Property: Activity coefficient of tert-butyl chloride (Liquid); method: Chromatography
Mole fraction of tert-butyl chloride	Activity coefficient of tert-butyl chloride	uncertainty
0	.9	.1
