Measured thermophysical data. Activity coefficients at infinite dilution of organic solutes in the ionic liquid  ethyl(2-hydroxyethyl)dimethyl-ammonium diethylphosphate using gas liquid  chromatography
Source: Fluid Phase Equilib., 2012, 10.1016/j.fluid.2012.04.008
Compound 1: ethyl(2-hydroxyethyl)dimethylammonium diethylphosphate, C10H26NO5P, purity 98%
Compound 2: hexane, C6H14, purity 99%
Compound 3: heptane, C7H16, purity 99%
Compound 4: cyclohexane, C6H12, purity 99%
Compound 5: methylcyclohexane, C7H14, purity 99%
Compound 6: benzene, C6H6, purity 99%
Compound 7: toluene, C7H8, purity 99%
Compound 8: 1,2-dimethylbenzene, C8H10, purity 99%
Compound 9: 1,3-dimethylbenzene, C8H10, purity 99%
Compound 10: 1,4-dimethylbenzene, C8H10, purity 99%
Compound 11: ethyl ethanoate, C4H8O2, purity 99%
Compound 12: acetone, C3H6O, purity 99%
Compound 13: diethyl ether, C4H10O, purity 99%
Compound 14: methanol, CH4O, purity 99%
Compound 15: ethanol, C2H6O, purity 99%
Compound 16: 1-propanol, C3H8O, purity 99%
Compound 17: 2-propanol, C3H8O, purity 99%

System: hexane + ethyl(2-hydroxyethyl)dimethylammonium diethylphosphate; phases: Liquid
Fixed: Pressure, kPa = 101
Fixed: Mole fraction of hexane = 0
Property: (Relative) activity of hexane (Liquid); method: Chromatography
Temperature, K	(Relative) activity of hexane	uncertainty
323.15	39.3	1.179
333.15	32.53	.9759
343.15	29.3	.879
353.15	24.9	.747
363.15	20.06	.6018

System: heptane + ethyl(2-hydroxyethyl)dimethylammonium diethylphosphate; phases: Liquid
Fixed: Pressure, kPa = 101
Fixed: Mole fraction of heptane = 0
Property: (Relative) activity of heptane (Liquid); method: Chromatography
Temperature, K	(Relative) activity of heptane	uncertainty
323.15	61.43	1.8429
333.15	49.63	1.4889
343.15	44.49	1.3347
353.15	37.58	1.1274
363.15	30.98	.9294

System: cyclohexane + ethyl(2-hydroxyethyl)dimethylammonium diethylphosphate; phases: Liquid
Fixed: Pressure, kPa = 101
Fixed: Mole fraction of cyclohexane = 0
Property: (Relative) activity of cyclohexane (Liquid); method: Chromatography
Temperature, K	(Relative) activity of cyclohexane	uncertainty
323.15	23.24	.6972
333.15	18.91	.5673
343.15	16.89	.5067
353.15	15.07	.4521
363.15	13.05	.3915

System: methylcyclohexane + ethyl(2-hydroxyethyl)dimethylammonium diethylphosphate; phases: Liquid
Fixed: Pressure, kPa = 101
Fixed: Mole fraction of methylcyclohexane = 0
Property: (Relative) activity of methylcyclohexane (Liquid); method: Chromatography
Temperature, K	(Relative) activity of methylcyclohexane	uncertainty
323.15	31.58	.9474
333.15	26.65	.7995
343.15	23.35	.7005
353.15	20.26	.6078
363.15	18.06	.5418

System: benzene + ethyl(2-hydroxyethyl)dimethylammonium diethylphosphate; phases: Liquid
Fixed: Pressure, kPa = 101
Fixed: Mole fraction of benzene = 0
Property: (Relative) activity of benzene (Liquid); method: Chromatography
Temperature, K	(Relative) activity of benzene	uncertainty
323.15	2.84	.0852
333.15	2.79	.0837
343.15	2.73	.0819
353.15	2.7	.081
363.15	2.66	.0798

System: toluene + ethyl(2-hydroxyethyl)dimethylammonium diethylphosphate; phases: Liquid
Fixed: Pressure, kPa = 101
Fixed: Mole fraction of toluene = 0
Property: (Relative) activity of toluene (Liquid); method: Chromatography
Temperature, K	(Relative) activity of toluene	uncertainty
323.15	4.99	.1497
333.15	4.9	.147
343.15	4.73	.1419
353.15	4.58	.1374
363.15	4.49	.1347

System: 1,2-dimethylbenzene + ethyl(2-hydroxyethyl)dimethylammonium diethylphosphate; phases: Liquid
Fixed: Pressure, kPa = 101
Fixed: Mole fraction of 1,2-dimethylbenzene = 0
Property: (Relative) activity of 1,2-dimethylbenzene (Liquid); method: Chromatography
Temperature, K	(Relative) activity of 1,2-dimethylbenzene	uncertainty
323.15	7.58	.2274
333.15	7.46	.2238
343.15	7.3	.219
353.15	7.08	.2124
363.15	6.85	.2055

System: 1,3-dimethylbenzene + ethyl(2-hydroxyethyl)dimethylammonium diethylphosphate; phases: Liquid
Fixed: Pressure, kPa = 101
Fixed: Mole fraction of 1,3-dimethylbenzene = 0
Property: (Relative) activity of 1,3-dimethylbenzene (Liquid); method: Chromatography
Temperature, K	(Relative) activity of 1,3-dimethylbenzene	uncertainty
323.15	8.44	.2532
333.15	8.24	.2472
343.15	8.04	.2412
353.15	7.74	.2322
363.15	7.52	.2256

System: 1,4-dimethylbenzene + ethyl(2-hydroxyethyl)dimethylammonium diethylphosphate; phases: Liquid
Fixed: Pressure, kPa = 101
Fixed: Mole fraction of 1,4-dimethylbenzene = 0
Property: (Relative) activity of 1,4-dimethylbenzene (Liquid); method: Chromatography
Temperature, K	(Relative) activity of 1,4-dimethylbenzene	uncertainty
323.15	9.03	.2709
333.15	8.78	.2634
343.15	8.52	.2556
353.15	8.17	.2451
363.15	8.05	.2415

System: ethyl ethanoate + ethyl(2-hydroxyethyl)dimethylammonium diethylphosphate; phases: Liquid
Fixed: Pressure, kPa = 101
Fixed: Mole fraction of ethyl ethanoate = 0
Property: (Relative) activity of ethyl ethanoate (Liquid); method: Chromatography
Temperature, K	(Relative) activity of ethyl ethanoate	uncertainty
323.15	3.91	.1173
333.15	3.82	.1146
343.15	3.73	.1119
353.15	3.62	.1086
363.15	3.48	.1044

System: acetone + ethyl(2-hydroxyethyl)dimethylammonium diethylphosphate; phases: Liquid
Fixed: Pressure, kPa = 101
Fixed: Mole fraction of acetone = 0
Property: (Relative) activity of acetone (Liquid); method: Chromatography
Temperature, K	(Relative) activity of acetone	uncertainty
323.15	1.88	.0564
333.15	1.86	.0558
343.15	1.83	.0549
353.15	1.81	.0543
363.15	1.79	.0537

System: diethyl ether + ethyl(2-hydroxyethyl)dimethylammonium diethylphosphate; phases: Liquid
Fixed: Pressure, kPa = 101
Fixed: Mole fraction of diethyl ether = 0
Property: (Relative) activity of diethyl ether (Liquid); method: Chromatography
Temperature, K	(Relative) activity of diethyl ether	uncertainty
323.15	7.8	.234
333.15	6.81	.2043
343.15	6.5	.195
353.15	5.96	.1788
363.15	5.49	.1647

System: methanol + ethyl(2-hydroxyethyl)dimethylammonium diethylphosphate; phases: Liquid
Fixed: Pressure, kPa = 101
Fixed: Mole fraction of methanol = 0
Property: (Relative) activity of methanol (Liquid); method: Chromatography
Temperature, K	(Relative) activity of methanol	uncertainty
323.15	.1	.003
333.15	.1	.003
343.15	.1	.003
353.15	.11	.0033
363.15	.11	.0033

System: ethanol + ethyl(2-hydroxyethyl)dimethylammonium diethylphosphate; phases: Liquid
Fixed: Pressure, kPa = 101
Fixed: Mole fraction of ethanol = 0
Property: (Relative) activity of ethanol (Liquid); method: Chromatography
Temperature, K	(Relative) activity of ethanol	uncertainty
323.15	.17	.0051
333.15	.18	.0054
343.15	.18	.0054
353.15	.19	.0057
363.15	.19	.0057

System: 1-propanol + ethyl(2-hydroxyethyl)dimethylammonium diethylphosphate; phases: Liquid
Fixed: Pressure, kPa = 101
Fixed: Mole fraction of 1-propanol = 0
Property: (Relative) activity of 1-propanol (Liquid); method: Chromatography
Temperature, K	(Relative) activity of 1-propanol	uncertainty
323.15	.22	.0066
333.15	.22	.0066
343.15	.23	.0069
353.15	.25	.0075
363.15	.25	.0075

System: 2-propanol + ethyl(2-hydroxyethyl)dimethylammonium diethylphosphate; phases: Liquid
Fixed: Pressure, kPa = 101
Fixed: Mole fraction of 2-propanol = 0
Property: (Relative) activity of 2-propanol (Liquid); method: Chromatography
Temperature, K	(Relative) activity of 2-propanol	uncertainty
323.15	.29	.0087
333.15	.3	.009
343.15	.3	.009
353.15	.33	.0099
363.15	.33	.0099
