Measured thermophysical data. Solubility of trans-1,3,3,3-tetrafluoropropene (R1234ze(E)) in pentaerythritol ester heptanoic acid (PEC7) and in pentaerythritol tetranonanoate (PEC9) between 283.15 K and 353.15 K
Source: Fluid Phase Equilib., 2015, 10.1016/j.fluid.2014.12.030
Compound 1: R-1234ze(E), C3H2F4, purity 99.9%
Compound 2: pentaerythritol ester heptanoic acid, C33H60O8, purity 98%
Compound 3: pentaerythritol tetranonanoate, C41H76O8, purity 98%
Compound 4: carbon dioxide, CO2, purity 98%
Compound 5: pentaerythritol tetrahexanoate, C29H52O8, purity 98%

System: pentaerythritol ester heptanoic acid + R-1234ze(E); phases: Liquid, Gas
Property: Mole fraction of R-1234ze(E) (Liquid); method: volumetric method
Temperature, K	Pressure, kPa	Mole fraction of R-1234ze(E)	uncertainty
283.15	54	.2218	.006654
283.15	124	.4364	.013092
283.15	174	.5652	.016956
283.15	225	.6872	.020616
283.15	250	.7493	.022479
283.15	271	.8102	.024306
283.15	290	.8852	.026556
283.15	300	.9368	.028104
293.15	65	.194	.00582
293.15	153	.3962	.011886
293.15	220	.5248	.015744
293.15	293	.6537	.019611
293.15	332	.7226	.021678
293.15	367	.7919	.023757
293.15	399	.8777	.026331
293.15	415	.9345	.028035
303.15	76	.1682	.005046
303.15	181	.355	.01065
303.15	265	.4802	.014406
303.15	364	.6126	.018378
303.15	422	.6871	.020613
303.15	480	.7659	.022977
303.15	536	.8667	.026001
303.15	560	.9312	.027936
313.15	86	.1445	.004335
313.15	207	.3151	.009453
313.15	307	.4342	.013026
313.15	433	.5657	.016971
313.15	514	.6433	.019299
313.15	602	.7304	.021912
313.15	700	.8503	.025509
313.15	741	.9265	.027795
323.15	96	.1232	.003696
323.15	231	.2782	.008346
323.15	346	.3898	.011694
323.15	497	.5167	.015501
323.15	599	.5945	.017835
323.15	723	.6857	.020571
323.15	889	.8255	.024765
323.15	961	.9197	.027591
333.15	104	.1052	.003156
333.15	253	.245	.00735
333.15	382	.3485	.010455
333.15	556	.4689	.014067
333.15	676	.5445	.016335
333.15	834	.6354	.019062
333.15	1090	.789	.02367
333.15	1227	.9089	.027267
343.15	113	.0894	.002682
343.15	273	.2161	.006483
343.15	414	.3114	.009342
343.15	606	.4245	.012735
343.15	745	.4968	.014904
343.15	932	.5845	.017535
343.15	1280	.7411	.022233
343.15	1533	.8913	.026739
353.15	118	.0756	.002268
353.15	293	.1909	.005727
353.15	445	.2788	.008364
353.15	653	.3844	.011532
353.15	807	.453	.01359
353.15	1019	.5366	.016098
353.15	1445	.6856	.020568
353.15	1897	.8546	.025638

System: pentaerythritol tetranonanoate + R-1234ze(E); phases: Liquid, Gas
Property: Mole fraction of R-1234ze(E) (Liquid); method: volumetric method
Temperature, K	Pressure, kPa	Mole fraction of R-1234ze(E)	uncertainty
283.15	59	.2227	.006681
283.15	126	.4158	.012474
283.15	185	.5592	.016776
283.15	245	.697	.02091
283.15	284	.7992	.023976
283.15	300	.8826	.026478
283.15	303	.9342	.028026
293.15	69	.1948	.005844
293.15	152	.3729	.011187
293.15	229	.5144	.015432
293.15	316	.6596	.019788
293.15	381	.7753	.023259
293.15	414	.8731	.026193
293.15	420	.9313	.027939
303.15	80	.1673	.005019
303.15	177	.3307	.009921
303.15	270	.4669	.014007
303.15	387	.6143	.018429
303.15	489	.7417	.022251
303.15	555	.8589	.025767
303.15	568	.9271	.027813
313.15	90	.1424	.004272
313.15	199	.2909	.008727
313.15	309	.4193	.012579
313.15	453	.5643	.016929
313.15	600	.698	.02094
313.15	723	.837	.02511
313.15	750	.921	.02763
323.15	99	.1202	.003606
323.15	220	.2548	.007644
323.15	344	.3745	.011235
323.15	513	.5138	.015414
323.15	702	.6474	.019422
323.15	908	.8033	.024099
323.15	972	.9117	.027351
333.15	107	.1009	.003027
333.15	239	.2228	.006684
333.15	375	.3335	.010005
333.15	567	.4654	.013962
333.15	792	.5949	.017847
333.15	1089	.7564	.022692
333.15	1228	.8974	.026922
343.15	111	.0842	.002526
343.15	255	.1981	.005943
343.15	404	.2972	.008916
343.15	616	.421	.01263
343.15	872	.5449	.016347
343.15	1246	.7029	.021087
343.15	1544	.869	.02607
353.15	116	.0682	.002046
353.15	272	.1715	.005145
353.15	431	.2653	.007959
353.15	660	.3811	.011433
353.15	942	.499	.01497
353.15	1378	.6508	.019524
353.15	1856	.8198	.024594

System: carbon dioxide + pentaerythritol tetrahexanoate; phases: Liquid, Gas
Fixed: Temperature, K = 303.15
Property: Mole fraction of carbon dioxide (Liquid); method: isochoric
Pressure, kPa	Mole fraction of carbon dioxide	uncertainty
568	.214	.00642
760	.26	.0078
969	.319	.00957
1235	.373	.01119
1904	.502	.01506
2879	.636	.01908
3514	.691	.02073
