Measured thermophysical data. The study of phase behavior of aqueous two-phase system containing [Cnmim]BF4 (n = 2,3,4) + (NH4)2SO4 + H2O at different temperatures
Source: Fluid Phase Equilib., 2014, 10.1016/j.fluid.2014.09.029
Compound 1: 1-ethyl-3-methylimidazolium tetrafluoroborate, C6H11BF4N2, purity 99%
Compound 2: 1-propyl-3-methylimidazolium tetrafluoroborate, C7H13BF4N2, purity 99%
Compound 3: 1-butyl-3-methylimidazolium tetrafluoroborate, C8H15BF4N2, purity 99%
Compound 4: ammonium sulfate, H8N2O4S, purity 99%
Compound 5: water, H2O, purity 99.8%

System: water + ammonium sulfate + 1-ethyl-3-methylimidazolium tetrafluoroborate; phases: Liquid mixture 1, Liquid mixture 2
Fixed: Pressure, kPa = 100
Property: Mass fraction of ammonium sulfate (Liquid mixture 1); method: Titration method
Temperature, K	Mass fraction of 1-ethyl-3-methylimidazolium tetrafluoroborate	Mass fraction of ammonium sulfate	uncertainty
288.15	.7705	.0036	.001
288.15	.715	.0069	.001
288.15	.6811	.0112	.001
288.15	.6423	.0157	.001
288.15	.6073	.021	.001
288.15	.5741	.0267	.001
288.15	.5504	.0297	.001
288.15	.531	.0338	.001
288.15	.5103	.0374	.001
288.15	.4896	.0405	.001
288.15	.4596	.0469	.001
288.15	.4094	.0585	.001
288.15	.3791	.0652	.001
288.15	.3422	.0752	.001
288.15	.3215	.0831	.001
288.15	.3026	.0882	.001
288.15	.2801	.0954	.001
288.15	.2556	.1039	.001
288.15	.2391	.1103	.001
288.15	.2157	.1208	.001
288.15	.1939	.1317	.001
288.15	.1853	.1367	.001
288.15	.1772	.1417	.001
288.15	.1694	.1477	.001
288.15	.1672	.1483	.001
288.15	.1583	.1547	.001
288.15	.1474	.1631	.001
288.15	.138	.1725	.001
288.15	.1282	.1825	.001
288.15	.1197	.1909	.001
288.15	.1106	.2012	.001
288.15	.097	.2203	.001
288.15	.0871	.2362	.001
288.15	.0794	.2489	.001
288.15	.1197	.1909	.001
288.15	.1106	.2012	.001
288.15	.097	.2203	.001
288.15	.0871	.2362	.001
288.15	.0794	.2489	.001
298.15	.793	.003	.001
298.15	.7562	.0061	.001
298.15	.7043	.0101	.001
298.15	.6891	.0119	.001
298.15	.6336	.017	.001
298.15	.5996	.022	.001
298.15	.5703	.0263	.001
298.15	.5554	.0308	.001
298.15	.5286	.0344	.001
298.15	.4998	.0408	.001
298.15	.4798	.0451	.001
298.15	.4418	.054	.001
298.15	.4226	.0594	.001
298.15	.3938	.0672	.001
298.15	.3702	.0742	.001
298.15	.3457	.0812	.001
298.15	.3254	.0876	.001
298.15	.3052	.094	.001
298.15	.2732	.1052	.001
298.15	.2633	.1093	.001
298.15	.2452	.1164	.001
298.15	.2329	.1236	.001
298.15	.2191	.1285	.001
298.15	.2044	.138	.001
298.15	.1828	.1481	.001
298.15	.1726	.1578	.001
298.15	.1697	.1571	.001
298.15	.1645	.1642	.001
298.15	.1522	.17	.001
298.15	.1486	.1734	.001
298.15	.1312	.1907	.001
298.15	.1156	.2085	.001
298.15	.1036	.2251	.001
298.15	.082	.2591	.001
313.15	.8207	.0008	.001
313.15	.7529	.0057	.001
313.15	.733	.0075	.001
313.15	.7235	.0085	.001
313.15	.692	.0134	.001
313.15	.6294	.0231	.001
313.15	.5595	.0345	.001
313.15	.529	.0411	.001
313.15	.5041	.0457	.001
313.15	.4798	.0507	.001
313.15	.4572	.057	.001
313.15	.4379	.0621	.001
313.15	.4193	.0665	.001
313.15	.3966	.0724	.001
313.15	.3776	.0781	.001
313.15	.3604	.0836	.001
313.15	.3422	.0901	.001
313.15	.325	.0964	.001
313.15	.3103	.1016	.001
313.15	.2958	.1069	.001
313.15	.2828	.1136	.001
313.15	.2673	.1187	.001
313.15	.2512	.1288	.001
313.15	.2315	.1384	.001
313.15	.213	.1482	.001
313.15	.1964	.1587	.001
313.15	.1814	.1678	.001
313.15	.167	.1772	.001
313.15	.1267	.2285	.001

System: water + ammonium sulfate + 1-ethyl-3-methylimidazolium tetrafluoroborate; phases: Liquid mixture 2, Liquid mixture 1
Property: Mass fraction of ammonium sulfate (Liquid mixture 2); method: Other
Property: Mass fraction of 1-ethyl-3-methylimidazolium tetrafluoroborate (Liquid mixture 1); method: Other
Property: Mass fraction of ammonium sulfate (Liquid mixture 1); method: Other
Temperature, K	Pressure, kPa	Mass fraction of 1-ethyl-3-methylimidazolium tetrafluoroborate	Mass fraction of ammonium sulfate	uncertainty	Mass fraction of 1-ethyl-3-methylimidazolium tetrafluoroborate	uncertainty	Mass fraction of ammonium sulfate	uncertainty
288.15	100	.1709	.1482	.001	.6353	.001	.0175	.001
288.15	100	.1325	.1776	.001	.7208	.001	.0073	.001
288.15	100	.1523	.1613	.001	.6691	.001	.0132	.001
288.15	100	.2048	.1282	.001	.5883	.001	.0241	.001
298.15	100	.141	.1822	.001	.68	.001	.0127	.001
298.15	100	.12	.2008	.001	.7179	.001	.0088	.001
298.15	100	.1015	.22	.001	.7438	.001	.0065	.001
298.15	100	.0883	.2358	.001	.7741	.001	.0042	.001
313.15	100	.1275	.2174	.001	.7223	.001	.0089	.001
313.15	100	.1225	.2229	.001	.7389	.001	.0075	.001
313.15	100	.138	.2066	.001	.6975	.001	.0125	.001
313.15	100	.1591	.1873	.001	.6576	.001	.018	.001

System: water + ammonium sulfate + 1-propyl-3-methylimidazolium tetrafluoroborate; phases: Liquid mixture 1, Liquid mixture 2
Fixed: Pressure, kPa = 100
Property: Mass fraction of ammonium sulfate (Liquid mixture 1); method: Titration method
Temperature, K	Mass fraction of 1-propyl-3-methylimidazolium tetrafluoroborate	Mass fraction of ammonium sulfate	uncertainty
288.15	.8892	.0071	.001
288.15	.7816	.012	.001
288.15	.749	.0145	.001
288.15	.712	.017	.001
288.15	.6712	.0195	.001
288.15	.6189	.0242	.001
288.15	.5738	.0282	.001
288.15	.5385	.0313	.001
288.15	.5032	.0348	.001
288.15	.4675	.0391	.001
288.15	.4107	.0466	.001
288.15	.397	.049	.001
288.15	.3632	.0538	.001
288.15	.3443	.0574	.001
288.15	.3272	.0605	.001
288.15	.3012	.0666	.001
288.15	.2802	.0718	.001
288.15	.2506	.0831	.001
288.15	.2372	.088	.001
288.15	.2061	.099	.001
288.15	.184	.11	.001
288.15	.1635	.1224	.001
288.15	.1522	.1313	.001
288.15	.1383	.1423	.001
288.15	.1322	.1471	.001
288.15	.1226	.1582	.001
288.15	.1139	.1682	.001
288.15	.1061	.1767	.001
288.15	.0994	.1843	.001
288.15	.0914	.1954	.001
288.15	.0831	.2084	.001
288.15	.0792	.2197	.001
288.15	.0694	.2357	.001
298.15	.8715	.0093	.001
298.15	.8154	.0122	.001
298.15	.7624	.0149	.001
298.15	.7126	.0197	.001
298.15	.6744	.0228	.001
298.15	.6346	.0262	.001
298.15	.5988	.0297	.001
298.15	.5652	.0337	.001
298.15	.5299	.0382	.001
298.15	.5001	.0423	.001
298.15	.4733	.046	.001
298.15	.4496	.0495	.001
298.15	.4285	.0526	.001
298.15	.3927	.0578	.001
298.15	.3684	.0639	.001
298.15	.332	.0697	.001
298.15	.2927	.0787	.001
298.15	.2681	.0859	.001
298.15	.2351	.0979	.001
298.15	.2159	.105	.001
298.15	.1933	.1161	.001
298.15	.1718	.1281	.001
298.15	.1536	.1403	.001
298.15	.1431	.1497	.001
298.15	.1321	.1579	.001
298.15	.1252	.1653	.001
298.15	.1108	.1787	.001
298.15	.1004	.1907	.001
298.15	.0943	.1993	.001
298.15	.0881	.2085	.001
298.15	.0816	.2189	.001
298.15	.0761	.2282	.001
298.15	.0694	.2402	.001
298.15	.0615	.2557	.001
313.15	.7488	.0198	.001
313.15	.7151	.0225	.001
313.15	.6835	.0256	.001
313.15	.6436	.0303	.001
313.15	.5996	.0361	.001
313.15	.5608	.0423	.001
313.15	.5278	.0475	.001
313.15	.4969	.0523	.001
313.15	.4647	.0584	.001
313.15	.438	.0632	.001
313.15	.414	.0676	.001
313.15	.3898	.0722	.001
313.15	.3637	.0778	.001
313.15	.3415	.0828	.001
313.15	.3166	.0888	.001
313.15	.2942	.094	.001
313.15	.2652	.1018	.001
313.15	.2496	.1081	.001
313.15	.2253	.1163	.001
313.15	.2124	.1219	.001
313.15	.1997	.1281	.001
313.15	.1806	.1404	.001
313.15	.1641	.1501	.001
313.15	.155	.1571	.001
313.15	.1436	.1628	.001
313.15	.1314	.177	.001
313.15	.1247	.1831	.001
313.15	.1156	.1891	.001
313.15	.1087	.1969	.001
313.15	.1011	.2067	.001
313.15	.0931	.218	.001
313.15	.0868	.2266	.001
313.15	.0803	.2362	.001
313.15	.072	.2501	.001

System: water + ammonium sulfate + 1-propyl-3-methylimidazolium tetrafluoroborate; phases: Liquid mixture 2, Liquid mixture 1
Property: Mass fraction of ammonium sulfate (Liquid mixture 2); method: Other
Property: Mass fraction of 1-propyl-3-methylimidazolium tetrafluoroborate (Liquid mixture 1); method: Other
Property: Mass fraction of ammonium sulfate (Liquid mixture 1); method: Other
Temperature, K	Pressure, kPa	Mass fraction of 1-propyl-3-methylimidazolium tetrafluoroborate	Mass fraction of ammonium sulfate	uncertainty	Mass fraction of 1-propyl-3-methylimidazolium tetrafluoroborate	uncertainty	Mass fraction of ammonium sulfate	uncertainty
288.15	100	.1127	.1597	.001	.6776	.001	.0186	.001
313.15	100	.1415	.165	.001	.5203	.001	.0483	.001
313.15	100	.159	.1526	.001	.4955	.001	.0522	.001
313.15	100	.2114	.1246	.001	.4198	.001	.0655	.001
288.15	100	.1009	.1803	.001	.7541	.001	.014	.001
288.15	100	.0948	.1909	.001	.793	.001	.0118	.001
288.15	100	.1055	.1733	.001	.728	.001	.0156	.001
298.15	100	.1037	.1824	.001	.6909	.001	.0194	.001
298.15	100	.096	.1945	.001	.7448	.001	.0171	.001
298.15	100	.092	.2005	.001	.7753	.001	.0149	.001
298.15	100	.0883	.2063	.001	.8066	.001	.0128	.001
313.15	100	.1791	.1406	.001	.4602	.001	.0581	.001

System: water + ammonium sulfate + 1-butyl-3-methylimidazolium tetrafluoroborate; phases: Liquid mixture 1, Liquid mixture 2
Fixed: Pressure, kPa = 100
Property: Mass fraction of ammonium sulfate (Liquid mixture 1); method: Titration method
Temperature, K	Mass fraction of 1-butyl-3-methylimidazolium tetrafluoroborate	Mass fraction of ammonium sulfate	uncertainty
288.15	.7825	.0036	.001
288.15	.722	.0031	.001
288.15	.6604	.0044	.001
288.15	.6126	.005	.001
288.15	.585	.0057	.001
288.15	.5593	.0061	.001
288.15	.5329	.0067	.001
288.15	.4991	.0079	.001
288.15	.4686	.0086	.001
288.15	.4417	.0097	.001
288.15	.424	.0104	.001
288.15	.3995	.0117	.001
288.15	.3539	.0132	.001
288.15	.3383	.0145	.001
288.15	.3107	.0166	.001
288.15	.2953	.018	.001
288.15	.2664	.0217	.001
288.15	.238	.0271	.001
288.15	.2141	.0325	.001
288.15	.1959	.0388	.001
288.15	.1771	.0461	.001
288.15	.157	.0569	.001
288.15	.142	.0665	.001
288.15	.1302	.0768	.001
288.15	.1225	.082	.001
288.15	.1101	.0964	.001
288.15	.1009	.1053	.001
288.15	.0921	.1182	.001
288.15	.0812	.1329	.001
288.15	.0722	.1488	.001
288.15	.0635	.164	.001
288.15	.0544	.1851	.001
288.15	.0467	.2042	.001
288.15	.0391	.2268	.001
298.15	.8003	.0019	.001
298.15	.7493	.0037	.001
298.15	.6956	.0049	.001
298.15	.6518	.0067	.001
298.15	.5975	.0087	.001
298.15	.5601	.0109	.001
298.15	.5337	.0119	.001
298.15	.5078	.0132	.001
298.15	.4601	.0161	.001
298.15	.4231	.0182	.001
298.15	.3867	.0213	.001
298.15	.3522	.0234	.001
298.15	.3277	.0257	.001
298.15	.2862	.0307	.001
298.15	.2595	.0353	.001
298.15	.237	.0396	.001
298.15	.2153	.0451	.001
298.15	.194	.0522	.001
298.15	.1781	.0594	.001
298.15	.1542	.0713	.001
298.15	.1374	.0827	.001
298.15	.1201	.0967	.001
298.15	.1115	.1048	.001
298.15	.1039	.116	.001
298.15	.093	.1288	.001
298.15	.0848	.1372	.001
298.15	.0816	.1458	.001
298.15	.0738	.158	.001
298.15	.0682	.1642	.001
298.15	.0667	.1692	.001
298.15	.0576	.1884	.001
298.15	.0491	.2099	.001
298.15	.0441	.2267	.001
313.15	.7531	.0036	.001
313.15	.73	.0041	.001
313.15	.6854	.0058	.001
313.15	.6436	.0071	.001
313.15	.5762	.0096	.001
313.15	.5568	.0113	.001
313.15	.5225	.0148	.001
313.15	.4953	.0186	.001
313.15	.4709	.0208	.001
313.15	.4392	.0224	.001
313.15	.4138	.0254	.001
313.15	.3931	.0277	.001
313.15	.3728	.0308	.001
313.15	.3209	.0352	.001
313.15	.2979	.0392	.001
313.15	.2765	.0417	.001
313.15	.2568	.0449	.001
313.15	.2478	.0468	.001
313.15	.232	.0511	.001
313.15	.2103	.0572	.001
313.15	.1928	.0622	.001
313.15	.1753	.0714	.001
313.15	.1649	.0749	.001
313.15	.1493	.0851	.001
313.15	.1329	.0959	.001
313.15	.1142	.1126	.001
313.15	.1064	.1194	.001
313.15	.0966	.1335	.001
313.15	.0806	.1553	.001
313.15	.0739	.1648	.001
313.15	.0661	.1803	.001
313.15	.0583	.1977	.001
313.15	.0518	.213	.001
313.15	.0428	.2392	.001

System: water + ammonium sulfate + 1-butyl-3-methylimidazolium tetrafluoroborate; phases: Liquid mixture 2, Liquid mixture 1
Property: Mass fraction of ammonium sulfate (Liquid mixture 2); method: Other
Property: Mass fraction of 1-butyl-3-methylimidazolium tetrafluoroborate (Liquid mixture 1); method: Other
Property: Mass fraction of ammonium sulfate (Liquid mixture 1); method: Other
Temperature, K	Pressure, kPa	Mass fraction of 1-butyl-3-methylimidazolium tetrafluoroborate	Mass fraction of ammonium sulfate	uncertainty	Mass fraction of 1-butyl-3-methylimidazolium tetrafluoroborate	uncertainty	Mass fraction of ammonium sulfate	uncertainty
288.15	100	.1202	.0852	.001	.6597	.001	.0044	.001
288.15	100	.115	.0917	.001	.6887	.001	.004	.001
288.15	100	.1093	.0994	.001	.7123	.001	.0037	.001
288.15	100	.1036	.1075	.001	.7386	.001	.0034	.001
298.15	100	.0858	.119	.001	.6205	.001	.0073	.001
298.15	100	.065	.1659	.001	.743	.001	.0036	.001
298.15	100	.0755	.1362	.001	.6573	.001	.006	.001
298.15	100	.0687	.1528	.001	.7037	.001	.0046	.001
313.15	100	.084	.1363	.001	.3972	.001	.026	.001
313.15	100	.0783	.145	.001	.4174	.001	.0238	.001
313.15	100	.0743	.1521	.001	.4361	.001	.0219	.001
313.15	100	.0674	.1673	.001	.4653	.001	.0192	.001
