Measured thermophysical data. Measurement and correlation of the solubility of juglone in supercritical carbon dioxide
Source: Fluid Phase Equilib., 2011, 10.1016/j.fluid.2011.08.024
Compound 1: 5-hydroxy-1,4-naphthoquinone, C10H6O3, purity 95%
Compound 2: carbon dioxide, CO2, purity 99.998%

System: carbon dioxide + 5-hydroxy-1,4-naphthoquinone; phases: Fluid (supercritical or subcritical phases), Crystal
Property: Mole fraction of 5-hydroxy-1,4-naphthoquinone (Fluid (supercritical or subcritical phases)); method: UV/Vis spectrophotometer
Temperature, K	Pressure, kPa	Mole fraction of 5-hydroxy-1,4-naphthoquinone	uncertainty
308.2	9200	.00043	.000002
308.2	12100	.00081	.000002
308.2	15200	.00104	.000002
308.2	18200	.00117	.000002
308.2	20300	.00128	.000002
308.2	24400	.00144	.000002
318.2	9200	.00003	.000002
318.2	12200	.00045	.000002
318.2	15200	.00077	.000002
318.2	18300	.00107	.000002
318.2	21400	.00127	.000002
318.2	24400	.00149	.000002
328.2	9300	.00002	.000002
328.2	12300	.00029	.000002
328.2	15300	.0007	.000002
328.2	18300	.00101	.000002
328.2	21500	.00123	.000002
328.2	24400	.00159	.000002
