Measured thermophysical data. Experimental determination and correlation of tie line data for the system (water + butyric acid + methylcyclohexane) at four temperatures
Source: Fluid Phase Equilib., 2012, 10.1016/j.fluid.2012.07.003
Compound 1: butanoic acid, C4H8O2, purity 99%
Compound 2: methylcyclohexane, C7H14, purity 99%
Compound 3: water, H2O, purity 99.8%

System: butanoic acid + methylcyclohexane + water; phases: Liquid mixture 1, Liquid mixture 2
Fixed: Pressure, kPa = 101
Property: Mass fraction of butanoic acid (Liquid mixture 1); method: Titration method
Temperature, K	Mass fraction of water	Mass fraction of butanoic acid	uncertainty
298.2	.9494	.0498	.0008
298.2	.8993	.0999	.0008
298.2	.8466	.1526	.0008
298.2	.8045	.1947	.0008
298.2	.7493	.2499	.0008
298.2	.6946	.2999	.0008
298.2	.6426	.3488	.0008
298.2	.5911	.3979	.0008
298.2	.5315	.4517	.0008
298.2	.484	.4933	.0008
298.2	.4587	.5117	.0008
298.2	.3854	.5774	.0008
298.2	.35	.599	.0008
298.2	.287	.631	.0008
298.2	.247	.643	.0008
298.2	.1743	.6511	.0008
298.2	.127	.645	.0008
298.2	.0967	.6332	.0008
298.2	.0603	.6088	.0008
298.2	.0421	.5654	.0008
298.2	.028	.543	.0008
298.2	.0205	.4944	.0008
298.2	.0135	.4463	.0008
298.2	.0086	.3968	.0008
298.2	.0049	.3429	.0008
298.2	.0036	.3114	.0008
298.2	.0012	.2467	.0008
298.2	.0012	.2008	.0008
298.2	.0012	.1535	.0008
298.2	.0012	.0986	.0008
298.2	.0012	.0525	.0008
308.2	.9486	.0506	.0008
308.2	.8986	.1006	.0008
308.2	.8478	.1514	.0008
308.2	.7952	.2024	.0008
308.2	.7338	.2615	.0008
308.2	.6917	.3005	.0008
308.2	.6393	.3498	.0008
308.2	.573	.4088	.0008
308.2	.5397	.4372	.0008
308.2	.4839	.4793	.0008
308.2	.4363	.5194	.0008
308.2	.3675	.5667	.0008
308.2	.3227	.5974	.0008
308.2	.2718	.6197	.0008
308.2	.2188	.6377	.0008
308.2	.17	.6358	.0008
308.2	.1204	.6195	.0008
308.2	.1183	.6178	.0008
308.2	.0788	.5895	.0008
308.2	.057	.567	.0008
308.2	.039	.525	.0008
308.2	.0307	.4886	.0008
308.2	.0168	.4481	.0008
308.2	.0145	.3982	.0008
308.2	.0095	.3606	.0008
308.2	.0049	.2973	.0008
308.2	.0049	.2463	.0008
308.2	.0025	.2013	.0008
308.2	.0024	.1508	.0008
308.2	.0024	.0995	.0008
308.2	.0012	.0588	.0008
318.2	.9469	.0507	.0008
318.2	.886	.1117	.0008
318.2	.8382	.1594	.0008
318.2	.7874	.2103	.0008
318.2	.744	.2497	.0008
318.2	.6826	.3067	.0008
318.2	.6347	.3501	.0008
318.2	.5914	.3886	.0008
318.2	.5269	.4471	.0008
318.2	.473	.486	.0008
318.2	.425	.524	.0008
318.2	.3267	.5844	.0008
318.2	.3249	.5847	.0008
318.2	.2769	.6112	.0008
318.2	.2379	.6234	.0008
318.2	.1869	.6217	.0008
318.2	.1637	.6183	.0008
318.2	.1196	.6094	.0008
318.2	.0883	.5869	.0008
318.2	.0608	.551	.0008
318.2	.0467	.5203	.0008
318.2	.033	.4898	.0008
318.2	.0218	.4416	.0008
318.2	.0144	.4023	.0008
318.2	.0097	.3471	.0008
318.2	.006	.3122	.0008
318.2	.0024	.2564	.0008
318.2	.0025	.1999	.0008
318.2	.0024	.1504	.0008
318.2	.0025	.103	.0008
318.2	.0025	.0507	.0008
328.2	.9399	.057	.0008
328.2	.8966	.1002	.0008
328.2	.8454	.1515	.0008
328.2	.7908	.2061	.0008
328.2	.746	.2477	.0008
328.2	.6971	.2879	.0008
328.2	.6339	.3446	.0008
328.2	.5763	.394	.0008
328.2	.5333	.4307	.0008
328.2	.477	.4776	.0008
328.2	.4255	.5153	.0008
328.2	.3711	.553	.0008
328.2	.316	.578	.0008
328.2	.269	.596	.0008
328.2	.2256	.5991	.0008
328.2	.1826	.5983	.0008
328.2	.2256	.5991	.0008
328.2	.1826	.5983	.0008
328.2	.1559	.5885	.0008
328.2	.1147	.5715	.0008
328.2	.085	.5515	.0008
328.2	.0633	.5271	.0008
328.2	.0422	.4811	.0008
328.2	.032	.4428	.0008
328.2	.016	.402	.0008
328.2	.009	.362	.0008
328.2	.002	.313	.0008
328.2	.0048	.2703	.0008
328.2	.0048	.2146	.0008
328.2	.0048	.1506	.0008
328.2	.0049	.1007	.0008

System: butanoic acid + methylcyclohexane + water; phases: Liquid mixture 1, Liquid mixture 2
Property: Mass fraction of water (Liquid mixture 1); method: Titration method
Property: Mass fraction of butanoic acid (Liquid mixture 2); method: Titration method
Property: Mass fraction of water (Liquid mixture 2); method: Titration method
Temperature, K	Pressure, kPa	Mass fraction of butanoic acid	Mass fraction of water	uncertainty	Mass fraction of butanoic acid	uncertainty	Mass fraction of water	uncertainty
298.2	101.325	.055	.94	.001	.165	.001	.002	.001
308.2	101.325	.127	.865	.001	.458	.001	.023	.001
308.2	101.325	.152	.84	.001	.502	.001	.042	.001
308.2	101.325	.172	.819	.001	.54	.001	.065	.001
318.2	101.325	.065	.928	.001	.176	.001	.003	.001
318.2	101.325	.09	.902	.001	.299	.001	.004	.001
318.2	101.325	.117	.875	.001	.393	.001	.008	.001
318.2	101.325	.138	.853	.001	.445	.001	.022	.001
318.2	101.325	.162	.829	.001	.499	.001	.043	.001
318.2	101.325	.181	.81	.001	.541	.001	.063	.001
328.2	101.325	.07	.925	.001	.177	.001	.003	.001
298.2	101.325	.078	.916	.001	.297	.001	.003	.001
328.2	101.325	.096	.898	.001	.3	.001	.005	.001
328.2	101.325	.122	.869	.001	.394	.001	.014	.001
328.2	101.325	.139	.852	.001	.451	.001	.03	.001
328.2	101.325	.16	.829	.001	.501	.001	.057	.001
328.2	101.325	.176	.813	.001	.533	.001	.071	.001
298.2	101.325	.097	.897	.001	.395	.001	.005	.001
298.2	101.325	.114	.881	.001	.46	.001	.015	.001
298.2	101.325	.131	.861	.001	.521	.001	.025	.001
298.2	101.325	.153	.839	.001	.55	.001	.051	.001
308.2	101.325	.061	.936	.001	.172	.001	.003	.001
308.2	101.325	.087	.906	.001	.292	.001	.004	.001
308.2	101.325	.106	.887	.001	.385	.001	.007	.001
