Measured thermophysical data. Vapor liquid equilibrium measurements and modeling of  the n-butane + ethanol system from 323 to 423K
Source: Fluid Phase Equilib., 2009, 10.1016/j.fluid.2009.08.007
Compound 1: butane, C4H10
Compound 2: ethanol, C2H6O

System: ethanol + butane; phases: Gas, Liquid
Property: Vapor or sublimation pressure, kPa (Gas); method: Closed cell (Static) method
Mole fraction of butane	Temperature, K	Vapor or sublimation pressure, kPa	uncertainty
0	323.25	28.2	4.4
.1934	323.25	380.9	4.4
.2379	323.25	402.3	4.4
.3007	323.25	429.6	4.4
.4282	323.25	464.9	4.4
.6856	323.25	487.4	4.4
.8111	323.25	495.4	4.4
.9001	323.25	500.5	4.4
.9521	323.25	503.2	4.4
.9744	323.25	502.8	4.4
1	323.25	495.3	4.4
0	353.26	110.2	4.4
.1099	353.26	560.8	4.4
.1548	353.26	669.4	4.4
.21	353.26	782.9	4.4
.321	353.26	886.3	4.4
.4764	353.26	952.6	4.4
.748	353.26	1009.7	4.4
.8816	353.26	1029.2	4.4
.9297	353.26	1034.5	4.4
.9622	353.26	1031.9	4.4
1	353.26	1013.3	4.4
0	373.27	224.5	4.4
.0253	373.27	425.6	4.4
.0816	373.27	746.6	4.4
.1548	373.27	996	4.4
.1956	373.27	1098.7	4.4
.2529	373.27	1210.5	4.4
.3191	373.27	1299.2	4.4
.4262	373.27	1400.4	4.4
.6273	373.27	1487.7	4.4
.7279	373.27	1524.3	4.4
.7955	373.27	1548.3	4.4
.9262	373.27	1572.3	4.4
.9758	373.27	1552.7	4.4
1	373.27	1527	4.4
0	403.57	585.5	4.4
.0349	403.57	951.3	4.4
.0879	403.57	1325.6	4.4
.1521	403.57	1687.8	4.4
.2974	403.57	2157.9	4.4
.3914	403.57	2354.6	4.4
.5833	403.57	2549.9	4.4
.7443	403.57	2680.6	4.4
.8116	403.57	2728	4.4
.922	403.57	2732.7	4.4
.9727	403.57	2689.6	4.4
1	403.57	2651.5	4.4
0	423.19	980.7	4.4
.0271	423.19	1324.9	4.4
.0608	423.19	1647	4.4
.1002	423.19	1969	4.4
.1494	423.19	2306.6	4.4
.2076	423.19	2650.8	4.4
.2964	423.19	2971.3	4.4
.3869	423.19	3204.1	4.4
.5064	423.19	3428.5	4.4
.6757	423.19	3670.8	4.4
.7652	423.19	3770.3	4.4
.9054	423.19	3798.4	4.4
.9146	423.19	3793.1	4.4
.949	423.19	3755.6	4.4
.9751	423.19	3714.1	4.4
1	423.19	3649.8	4.4

System: ethanol + butane; phases: Gas, Liquid
Property: Mole fraction of butane (Gas); method: Chromatography
Mole fraction of butane	Temperature, K	Mole fraction of butane	uncertainty
0	323.25	0	.0044
.1934	323.25	.9191	.0044
.2379	323.25	.9224	.0044
.3007	323.25	.9281	.0044
.4282	323.25	.9362	.0044
.6856	323.25	.9434	.0044
.8111	323.25	.948	.0044
.9001	323.25	.9543	.0044
.9521	323.25	.9623	.0044
.9744	323.25	.9701	.0044
1	323.25	1	.0044
0	353.26	0	.0044
.1099	353.26	.7817	.0044
.1548	353.26	.818	.0044
.21	353.26	.8471	.0044
.321	353.26	.8707	.0044
.4764	353.26	.8854	.0044
.748	353.26	.9039	.0044
.8816	353.26	.9215	.0044
.9297	353.26	.9348	.0044
.9622	353.26	.9525	.0044
1	353.26	1	.0044
0	373.27	0	.0044
.0253	373.27	.4279	.0044
.0816	373.27	.669	.0044
.1548	373.27	.7434	.0044
.1956	373.27	.7683	.0044
.2529	373.27	.7922	.0044
.3191	373.27	.8097	.0044
.4262	373.27	.8301	.0044
.6273	373.27	.8515	.0044
.7279	373.27	.8642	.0044
.7955	373.27	.8758	.0044
.9262	373.27	.9216	.0044
.9758	373.27	.9654	.0044
1	373.27	1	.0044
0	403.57	0	.0044
.0349	403.57	.353	.0044
.0879	403.57	.5277	.0044
.1521	403.57	.6255	.0044
.2974	403.57	.7131	.0044
.3914	403.57	.7442	.0044
.5833	403.57	.7706	.0044
.7443	403.57	.8124	.0044
.8116	403.57	.8459	.0044
.922	403.57	.9124	.0044
.9727	403.57	.9653	.0044
1	403.57	1	.0044
0	423.19	0	.0044
.0271	423.19	.2101	.0044
.0608	423.19	.3382	.0044
.1002	423.19	.4293	.0044
.1494	423.19	.5042	.0044
.2076	423.19	.5653	.0044
.2964	423.19	.6187	.0044
.3869	423.19	.6517	.0044
.5064	423.19	.6874	.0044
.6757	423.19	.7454	.0044
.7652	423.19	.7913	.0044
.9054	423.19	.9018	.0044
.9146	423.19	.9109	.0044
.949	423.19	.9452	.0044
.9751	423.19	.9727	.0044
1	423.19	1	.0044

System: ethanol + butane; phases: Liquid, Gas
Property: Azeotropic composition: mole fraction of butane (Liquid); method: Curve fit of data
Temperature, K	Azeotropic composition: mole fraction of butane	uncertainty
323.25	.973	
353.26	.9492	
373.27	.9296	
403.57	.8977	

System: ethanol + butane; phases: Liquid, Gas
Property: Azeotropic composition: mole fraction of butane (Liquid); method: Curve fit of data
Pressure, kPa	Azeotropic composition: mole fraction of butane	uncertainty
505	.973	
1042	.9492	
1587	.9296	
2790	.8977	
