Measured thermophysical data. Solid-liquid phase equilibrium and ternary phase diagrams of ethenzamide-saccharin cocrystals in different solvents
Source: Fluid Phase Equilib., 2016, 10.1016/j.fluid.2016.02.047
Compound 1: ethenzamide, C9H11NO2, purity 99%
Compound 2: saccharin, C7H5NO3S, purity 99%
Compound 3: ethanol, C2H6O, purity 99.5%
Compound 4: isopropanol, C3H8O, purity 99.5%
Compound 5: ethyl acetate, C4H8O2, purity 99.5%

System: ethanol + saccharin + ethenzamide; phases: Liquid, Crystal
Fixed: Pressure, kPa = 101.3
Property: Mass fraction of saccharin (Liquid); method: Chromatography
Temperature, K	Mass fraction of ethenzamide	Mass fraction of saccharin	uncertainty
298.15	.0405	.027	
298.15	.0363	.021	
298.15	.0355	.0111	
298.15	.0363	0	
308.15	.0562	.0365	
308.15	.0542	.0296	
308.15	.0518	.0217	
308.15	.0502	.0078	
308.15	.0542	0	

System: ethanol + saccharin + ethenzamide; phases: Liquid, Crystal
Fixed: Pressure, kPa = 101.3
Property: Mass fraction of saccharin (Liquid); method: Chromatography
Temperature, K	Mass fraction of ethenzamide	Mass fraction of saccharin	uncertainty
298.15	0	.0241	
298.15	.011	.0255	
298.15	.0191	.0293	
298.15	.0257	.0337	
308.15	0	.0424	
308.15	.0129	.0426	
308.15	.0252	.0433	
308.15	.032	.05	

System: ethanol + saccharin + ethenzamide; phases: Liquid, Crystal of intercomponent compound 1
Fixed: Pressure, kPa = 101.3
Property: Mass fraction of saccharin (Liquid); method: Chromatography
Temperature, K	Mass fraction of ethenzamide	Mass fraction of saccharin	uncertainty
308.15	.0375	.0534	
298.15	.0301	.0367	

System: ethanol + saccharin + ethenzamide; phases: Liquid, Crystal of intercomponent compound 2
Fixed: Pressure, kPa = 101.3
Property: Mass fraction of saccharin (Liquid); method: Chromatography
Temperature, K	Mass fraction of ethenzamide	Mass fraction of saccharin	uncertainty
298.15	.033	.0342	
298.15	.0362	.0328	
298.15	.0375	.0325	
308.15	.0403	.0496	
308.15	.0442	.0472	
308.15	.048	.0441	
308.15	.0512	.0433	
308.15	.0546	.0422	

System: ethanol + saccharin + ethenzamide; phases: Liquid, Crystal of intercomponent compound 3
Fixed: Pressure, kPa = 101.3
Property: Mass fraction of saccharin (Liquid); method: Chromatography
Temperature, K	Mass fraction of ethenzamide	Mass fraction of saccharin	uncertainty
308.15	.059	.0396	
298.15	.0406	.0315	

System: isopropanol + saccharin + ethenzamide; phases: Liquid, Crystal
Fixed: Pressure, kPa = 101.3
Property: Mass fraction of saccharin (Liquid); method: Chromatography
Temperature, K	Mass fraction of ethenzamide	Mass fraction of saccharin	uncertainty
298.15	0	.0193	
298.15	.0056	.0231	
298.15	.0124	.0266	
298.15	.018	.0313	
308.15	0	.9689	
308.15	.014	.9547	
308.15	.0204	.9455	
308.15	.0251	.9385	

System: isopropanol + saccharin + ethenzamide; phases: Liquid, Crystal
Fixed: Pressure, kPa = 101.3
Property: Mass fraction of saccharin (Liquid); method: Chromatography
Temperature, K	Mass fraction of ethenzamide	Mass fraction of saccharin	uncertainty
298.15	.0304	.0236	
298.15	.0261	.0175	
298.15	.0266	.0081	
298.15	.0287	0	
308.15	.0458	.0265	
308.15	.0435	.0213	
308.15	.0417	.012	
308.15	.0427	0	

System: isopropanol + saccharin + ethenzamide; phases: Liquid, Crystal of intercomponent compound 1
Fixed: Pressure, kPa = 101.3
Property: Mass fraction of saccharin (Liquid); method: Chromatography
Temperature, K	Mass fraction of ethenzamide	Mass fraction of saccharin	uncertainty
308.15	.03	.04	
298.15	.0201	.034	

System: isopropanol + saccharin + ethenzamide; phases: Liquid, Crystal of intercomponent compound 3
Fixed: Pressure, kPa = 101.3
Property: Mass fraction of saccharin (Liquid); method: Chromatography
Temperature, K	Mass fraction of ethenzamide	Mass fraction of saccharin	uncertainty
298.15	.0319	.0292	
308.15	.0507	.0301	

System: isopropanol + saccharin + ethenzamide; phases: Liquid, Crystal of intercomponent compound 2
Fixed: Pressure, kPa = 101.3
Property: Mass fraction of saccharin (Liquid); method: Chromatography
Temperature, K	Mass fraction of ethenzamide	Mass fraction of saccharin	uncertainty
308.15	.0338	.0368	
308.15	.0381	.0352	
308.15	.0427	.0331	
308.15	.0465	.032	
298.15	.0231	.032	
298.15	.026	.0317	
298.15	.0285	.0305	

System: saccharin + ethyl acetate + ethenzamide; phases: Liquid, Crystal of intercomponent compound 2
Fixed: Pressure, kPa = 101.3
Property: Mass fraction of saccharin (Liquid); method: Chromatography
Temperature, K	Mass fraction of ethenzamide	Mass fraction of saccharin	uncertainty
298.15	.0349	.0406	
298.15	.0379	.0371	
298.15	.0402	.0352	
298.15	.0439	.0322	
308.15	.0395	.0502	
308.15	.0425	.0462	
308.15	.0475	.0421	
308.15	.0512	.039	
308.15	.0565	.0352	

System: saccharin + ethyl acetate + ethenzamide; phases: Liquid, Crystal of intercomponent compound 1
Fixed: Pressure, kPa = 101.3
Property: Mass fraction of saccharin (Liquid); method: Chromatography
Temperature, K	Mass fraction of ethenzamide	Mass fraction of saccharin	uncertainty
308.15	.0357	.0557	
298.15	.032	.0438	

System: saccharin + ethyl acetate + ethenzamide; phases: Liquid, Crystal of intercomponent compound 3
Fixed: Pressure, kPa = 101.3
Property: Mass fraction of saccharin (Liquid); method: Chromatography
Temperature, K	Mass fraction of ethenzamide	Mass fraction of saccharin	uncertainty
298.15	.047	.0308	
308.15	.06	.0336	

System: saccharin + ethyl acetate + ethenzamide; phases: Liquid, Crystal
Fixed: Pressure, kPa = 101.3
Property: Mass fraction of saccharin (Liquid); method: Chromatography
Temperature, K	Mass fraction of ethenzamide	Mass fraction of saccharin	uncertainty
308.15	0	.0565	
308.15	.0096	.0549	
308.15	.02	.0536	
308.15	.0285	.0543	
298.15	0	.04	
298.15	.01	.0411	
298.15	.02	.0401	
298.15	.0271	.042	

System: saccharin + ethyl acetate + ethenzamide; phases: Liquid, Crystal
Fixed: Pressure, kPa = 101.3
Property: Mass fraction of saccharin (Liquid); method: Chromatography
Temperature, K	Mass fraction of ethenzamide	Mass fraction of saccharin	uncertainty
298.15	.0449	.0243	
298.15	.0439	.0173	
298.15	.0435	.0097	
298.15	.0435	0	
308.15	.0588	.0261	
308.15	.0577	.02	
308.15	.0582	.0113	
308.15	.0589	0	
