Measured thermophysical data. Excess enthalpies of ether + alcohol + hydrocarbon mixtures: Binary and  ternary mixtures containing dibutyl ether (DBE), 1-butanol and benzene  at 298.15K and 313.15K
Source: Fluid Phase Equilib., 2009, 10.1016/j.fluid.2009.06.015
Compound 1: 5-oxanonane, C8H18O, purity 99.6%
Compound 2: 1-butanol, C4H10O, purity 99.8%
Compound 3: benzene, C6H6, purity 99.9%

System: benzene + 5-oxanonane; phases: Liquid
Fixed: Pressure, kPa = 101
Fixed: Temperature, K = 298.15
Property: Excess molar enthalpy (molar enthalpy of mixing), kJ/mol (Liquid); method: Flow calorimetry
Mole fraction of 5-oxanonane	Excess molar enthalpy (molar enthalpy of mixing), kJ/mol	uncertainty
.0499	.0997	.000997
.1001	.1779	.001779
.1502	.2366	.002366
.2002	.2802	.002802
.3003	.3298	.003298
.4003	.3411	.003411
.5	.3241	.003241
.6	.2857	.002857
.6992	.2316	.002316
.7997	.1629	.001629
.9	.0844	.000844

System: benzene + 5-oxanonane; phases: Liquid
Fixed: Pressure, kPa = 101
Fixed: Temperature, K = 313.15
Property: Excess molar enthalpy (molar enthalpy of mixing), kJ/mol (Liquid); method: Flow calorimetry
Mole fraction of 5-oxanonane	Excess molar enthalpy (molar enthalpy of mixing), kJ/mol	uncertainty
.0504	.0928	.000928
.0994	.1644	.001644
.1501	.2201	.002201
.1993	.2604	.002604
.2494	.2892	.002892
.3001	.3084	.003084
.3493	.3176	.003176
.4001	.3196	.003196
.4504	.3149	.003149
.4998	.304	.00304
.5501	.2885	.002885
.5985	.2685	.002685
.65	.244	.00244
.699	.2165	.002165
.751	.1852	.001852
.7996	.1519	.001519
.851	.1163	.001163
.8982	.0802	.000802
.9515	.0379	.000379

System: 1-butanol + 5-oxanonane; phases: Liquid
Fixed: Pressure, kPa = 101
Fixed: Temperature, K = 298.15
Property: Excess molar enthalpy (molar enthalpy of mixing), kJ/mol (Liquid); method: Flow calorimetry
Mole fraction of 5-oxanonane	Excess molar enthalpy (molar enthalpy of mixing), kJ/mol	uncertainty
.0501	.1194	.001194
.1002	.236	.00236
.1497	.3445	.003445
.2003	.4476	.004476
.2503	.5402	.005402
.3004	.6246	.006246
.3498	.6984	.006984
.4006	.7621	.007621
.4507	.814	.00814
.4997	.8532	.008532
.5506	.8798	.008798
.5998	.8924	.008924
.6505	.8906	.008906
.7	.8726	.008726
.7509	.8332	.008332
.8	.7728	.007728
.8501	.6791	.006791
.8994	.5431	.005431
.9493	.3301	.003301

System: 1-butanol + 5-oxanonane; phases: Liquid
Fixed: Pressure, kPa = 101
Fixed: Temperature, K = 313.15
Property: Excess molar enthalpy (molar enthalpy of mixing), kJ/mol (Liquid); method: Flow calorimetry
Mole fraction of 5-oxanonane	Excess molar enthalpy (molar enthalpy of mixing), kJ/mol	uncertainty
.0501	.1423	.001423
.1003	.2791	.002791
.1498	.4067	.004067
.2004	.5275	.005275
.2502	.6358	.006358
.3004	.7341	.007341
.3497	.8188	.008188
.4004	.8936	.008936
.4505	.9531	.009531
.4995	.9978	.009978
.5503	1.0286	.010286
.5994	1.0443	.010443
.6502	1.0408	.010408
.6997	1.0179	.010179
.7506	.9669	.009669
.7998	.8935	.008935
.8499	.7794	.007794
.8993	.6142	.006142
.9494	.364	.00364

System: 1-butanol + benzene; phases: Liquid
Fixed: Pressure, kPa = 101
Fixed: Temperature, K = 298.15
Property: Excess molar enthalpy (molar enthalpy of mixing), kJ/mol (Liquid); method: Flow calorimetry
Mole fraction of benzene	Excess molar enthalpy (molar enthalpy of mixing), kJ/mol	uncertainty
.0504	.118	.00118
.0997	.237	.00237
.1497	.3562	.003562
.1997	.4745	.004745
.2505	.5898	.005898
.3001	.6967	.006967
.3506	.7974	.007974
.3999	.8865	.008865
.4502	.9634	.009634
.5002	1.0283	.010283
.5501	1.076	.01076
.5998	1.107	.01107
.6505	1.1182	.011182
.7	1.1066	.011066
.7503	1.0725	.010725
.7996	1.0124	.010124
.8497	.919	.00919
.8996	.7758	.007758
.9504	.5377	.005377

System: 1-butanol + benzene; phases: Liquid
Fixed: Pressure, kPa = 101
Fixed: Temperature, K = 313.15
Property: Excess molar enthalpy (molar enthalpy of mixing), kJ/mol (Liquid); method: Flow calorimetry
Mole fraction of benzene	Excess molar enthalpy (molar enthalpy of mixing), kJ/mol	uncertainty
.0494	.1481	.001481
.1007	.3037	.003037
.1497	.451	.00451
.2007	.5981	.005981
.2495	.7328	.007328
.3002	.8622	.008622
.3507	.9803	.009803
.401	1.0859	.010859
.4493	1.1714	.011714
.4993	1.2431	.012431
.5492	1.2965	.012965
.601	1.328	.01328
.6506	1.337	.01337
.7001	1.3216	.013216
.7495	1.2794	.012794
.8007	1.1995	.011995
.8498	1.0836	.010836
.9007	.9011	.009011
.9495	.6055	.006055

System: 1-butanol + benzene + 5-oxanonane; phases: Liquid
Fixed: Pressure, kPa = 101
Fixed: Temperature, K = 298.15
Property: Molar enthalpy of mixing with solvent, kJ/mol of benzene (Liquid); method: Flow calorimetry
Solvent: Amount ratio of component to other component of binary solvent of 5-oxanonane	Mole fraction of benzene	Molar enthalpy of mixing with solvent, kJ/mol of benzene	uncertainty
.25	.9	.673	.00673
.25	.8002	.8741	.008741
.25	.7001	.9427	.009427
.25	.6	.9316	.009316
.25	.5	.8581	.008581
.25	.4004	.7364	.007364
.25	.3004	.581	.00581
.25	.2	.3997	.003997
.25	.1006	.2045	.002045
.6667	.8999	.5651	.005651
.6667	.8002	.7399	.007399
.6667	.7003	.7935	.007935
.6667	.5998	.7781	.007781
.6667	.5005	.7134	.007134
.6667	.4001	.6112	.006112
.6667	.2999	.4838	.004838
.6667	.2007	.3355	.003355
.6667	.1006	.172	.00172
1.4998	.9002	.4492	.004492
1.4998	.7999	.607	.00607
1.4998	.6998	.6558	.006558
1.4998	.5999	.6426	.006426
1.4998	.5005	.5885	.005885
1.4998	.3998	.5043	.005043
1.4998	.2999	.3986	.003986
1.4998	.2007	.277	.00277
1.4998	.1005	.1428	.001428
3.9975	.9002	.3104	.003104
3.9975	.7999	.4527	.004527
3.9975	.6997	.505	.00505
3.9975	.5996	.503	.00503
3.9975	.4997	.4648	.004648
3.9975	.3999	.4012	.004012
3.9975	.3007	.3193	.003193
3.9975	.1998	.221	.00221
3.9975	.0996	.1128	.001128

System: 1-butanol + benzene + 5-oxanonane; phases: Liquid
Fixed: Pressure, kPa = 101
Fixed: Temperature, K = 313.15
Property: Molar enthalpy of mixing with solvent, kJ/mol of benzene (Liquid); method: Flow calorimetry
Solvent: Amount ratio of component to other component of binary solvent of 5-oxanonane	Mole fraction of benzene	Molar enthalpy of mixing with solvent, kJ/mol of benzene	uncertainty
.25	.9	.769	.00769
.25	.7994	1.023	.01023
.25	.7004	1.1078	.011078
.25	.6012	1.101	.01101
.25	.5002	1.0196	.010196
.25	.3995	.88	.0088
.25	.2994	.6972	.006972
.25	.2	.484	.00484
.25	.0994	.2464	.002464
.6667	.9006	.623	.00623
.6667	.8002	.8433	.008433
.6667	.6994	.913	.00913
.6667	.6008	.898	.00898
.6667	.4995	.8252	.008252
.6667	.4001	.7095	.007095
.6667	.301	.5641	.005641
.6667	.2007	.3916	.003916
.6667	.0993	.1985	.001985
1.4997	.8995	.4745	.004745
1.4997	.7999	.6631	.006631
1.4997	.6999	.725	.00725
1.4997	.6009	.7144	.007144
1.4997	.5005	.6559	.006559
1.4997	.3999	.5619	.005619
1.4997	.2999	.4444	.004444
1.4997	.1993	.3057	.003057
1.4997	.099	.1556	.001556
4.0022	.8995	.306	.00306
4.0022	.8	.4587	.004587
4.0022	.6998	.5198	.005198
4.0022	.5997	.5224	.005224
4.0022	.4998	.4845	.004845
4.0022	.4	.4196	.004196
4.0022	.2995	.3328	.003328
4.0022	.1998	.2302	.002302
4.0022	.0995	.1181	.001181
