Measured thermophysical data. Isobaric vapor-liquid equilibrium for the binary systems of 1-butanol +Poly methoxy methylal (n=2), and 1-butanol +Poly methoxy methylal (n=3) at 101.3 kPa
Source: Fluid Phase Equilib., 2014, 10.1016/j.fluid.2014.06.019
Compound 1: 1-butanol, C4H10O, purity 99.7%
Compound 2: 1,1'-oxybis[1-methoxy]methane, C4H10O3, purity 99.55%
Compound 3: 2,4,6,8-Tetraoxanonane, C5H12O4, purity 99.52%

System: 1-butanol; phases: Liquid, Gas
Property: Boiling temperature at pressure P, K (Liquid); method: Distillation
Pressure, kPa	Boiling temperature at pressure P, K	uncertainty
101.3	390.82	.1

System: 1-butanol; phases: Liquid
Fixed: Pressure, kPa = 101.325
Property: Mass density, kg/m3 (Liquid); method: Pycnometric method
Temperature, K	Mass density, kg/m3	uncertainty
298.15	805.2	.1

System: 1-butanol; phases: Liquid
Fixed: Pressure, kPa = 101.325
Property: Refractive index (Na D-line) (Liquid); method: Standard Abbe refractometry
Temperature, K	Refractive index (Na D-line)	uncertainty
298.15	1.3967	.0001

System: 1,1'-oxybis[1-methoxy]methane; phases: Liquid
Fixed: Pressure, kPa = 101.325
Property: Mass density, kg/m3 (Liquid); method: Pycnometric method
Temperature, K	Mass density, kg/m3	uncertainty
298.15	957.8	.1

System: 1,1'-oxybis[1-methoxy]methane; phases: Liquid, Gas
Property: Boiling temperature at pressure P, K (Liquid); method: Distillation
Pressure, kPa	Boiling temperature at pressure P, K	uncertainty
101.3	377.95	.1

System: 1,1'-oxybis[1-methoxy]methane; phases: Liquid
Fixed: Pressure, kPa = 101.325
Property: Refractive index (Na D-line) (Liquid); method: Standard Abbe refractometry
Temperature, K	Refractive index (Na D-line)	uncertainty
298.15	1.3789	.0001

System: 2,4,6,8-Tetraoxanonane; phases: Liquid
Fixed: Pressure, kPa = 101.325
Property: Mass density, kg/m3 (Liquid); method: Pycnometric method
Temperature, K	Mass density, kg/m3	uncertainty
298.15	1023.2	.1

System: 2,4,6,8-Tetraoxanonane; phases: Liquid, Gas
Property: Boiling temperature at pressure P, K (Liquid); method: Distillation
Pressure, kPa	Boiling temperature at pressure P, K	uncertainty
101.3	428.87	.1

System: 2,4,6,8-Tetraoxanonane; phases: Liquid
Fixed: Pressure, kPa = 101.325
Property: Refractive index (Na D-line) (Liquid); method: Standard Abbe refractometry
Temperature, K	Refractive index (Na D-line)	uncertainty
298.15	1.392	.0001

System: 1-butanol + 1,1'-oxybis[1-methoxy]methane; phases: Liquid, Gas
Fixed: Pressure, kPa = 101.3
Property: Boiling temperature at pressure P, K (Liquid); method: Ebulliometric method (Recirculating still)
Mole fraction of 1,1'-oxybis[1-methoxy]methane	Boiling temperature at pressure P, K	uncertainty
0	390.85	.1
.0492	389.13	.1
.0345	389.6	.1
.0246	389.97	.1
.0757	388.36	.1
.1314	386.97	.1
.1907	385.56	.1
.2464	384.43	.1
.2893	383.67	.1
.156	386.29	.1
.1086	387.46	.1
.2091	385.03	.1
.3127	383.12	.1
.3692	382.24	.1
.4231	381.46	.1
.4807	380.8	.1
.5217	380.25	.1
.5829	379.69	.1
.6468	379.19	.1
.7076	378.74	.1
.9644	377.78	.1
.9299	377.86	.1
.8848	377.94	.1
.8428	378.08	.1
.8698	377.99	.1
.7962	378.3	.1
1	377.95	.1

System: 1-butanol + 1,1'-oxybis[1-methoxy]methane; phases: Gas, Liquid
Fixed: Pressure, kPa = 101.3
Property: Mole fraction of 1,1'-oxybis[1-methoxy]methane (Gas); method: Chromatography
Mole fraction of 1,1'-oxybis[1-methoxy]methane	Mole fraction of 1,1'-oxybis[1-methoxy]methane	uncertainty
0	0	.1
.0492	.101	.1
.0345	.0703	.1
.0246	.0509	.1
.0757	.1452	.1
.1314	.2336	.1
.1907	.3135	.1
.2464	.3767	.1
.2893	.4204	.1
.156	.2678	.1
.1086	.1984	.1
.2091	.3362	.1
.3127	.4465	.1
.3692	.4954	.1
.4231	.5406	.1
.4807	.587	.1
.5217	.6196	.1
.5829	.6645	.1
.6468	.7123	.1
.7076	.7583	.1
.9644	.9668	.1
.9299	.936	.1
.8848	.8972	.1
.8428	.8632	.1
.8698	.8849	.1
.7962	.8259	.1
1	1	.1

System: 1-butanol + 2,4,6,8-Tetraoxanonane; phases: Liquid, Gas
Fixed: Pressure, kPa = 101.3
Property: Boiling temperature at pressure P, K (Liquid); method: Ebulliometric method (Recirculating still)
Mole fraction of 1-butanol	Boiling temperature at pressure P, K	uncertainty
1	390.85	.1
.9667	391.35	.1
.9295	391.77	.1
.8798	392.58	.1
.8205	393.72	.1
.7244	395.45	.1
.6393	397.75	.1
.5102	401.35	.1
.4142	404.38	.1
.3455	406.61	.1
.3092	408.38	.1
.2637	410.9	.1
.2297	412.42	.1
.176	415.15	.1
.1381	417.73	.1
.1121	419.45	.1
.0739	421.98	.1
.0526	424.08	.1
.0263	426.18	.1
0	428.95	.1

System: 1-butanol + 2,4,6,8-Tetraoxanonane; phases: Gas, Liquid
Fixed: Pressure, kPa = 101.3
Property: Mole fraction of 1-butanol (Gas); method: Chromatography
Mole fraction of 1-butanol	Mole fraction of 1-butanol	uncertainty
1	1	.1
.9667	.9837	.1
.9295	.9653	.1
.8798	.9418	.1
.8205	.9137	.1
.7244	.8739	.1
.6393	.8308	.1
.5102	.7692	.1
.4142	.7047	.1
.3455	.6589	.1
.3092	.6125	.1
.2637	.569	.1
.2297	.5259	.1
.176	.4459	.1
.1381	.376	.1
.1121	.3234	.1
.0739	.238	.1
.0526	.1794	.1
.0263	.1042	.1
0	0	.1
