Measured thermophysical data. Measurement, correlation and prediction of isothermal vapor liquid equilibria of different systems containing vegetable oils
Source: Fluid Phase Equilib., 2015, 10.1016/j.fluid.2015.03.009
Compound 1: methanol, CH4O, purity 99.8%
Compound 2: ethanol, C2H6O, purity 99.8%
Compound 3: n-hexane, C6H14, purity 99%

System: methanol; phases: Liquid, Gas
Property: Vapor or sublimation pressure, kPa (Liquid); method: Closed cell (Static) method
Temperature, K	Vapor or sublimation pressure, kPa	uncertainty
348.15	150.7076	.0008
373.15	352.6377	.0018
348.15	150.6943	.0008
373.15	352.6243	.0018
348.15	150.6676	.0008
373.15	352.7043	.0018

System: ethanol; phases: Liquid, Gas
Property: Vapor or sublimation pressure, kPa (Liquid); method: Closed cell (Static) method
Temperature, K	Vapor or sublimation pressure, kPa	uncertainty
348.15	88.5874	.0004
373.15	224.3682	.0011
348.15	88.5847	.0004
373.15	224.3682	.0011
348.15	88.5874	.0004
373.15	224.3149	.0011

System: n-hexane; phases: Liquid, Gas
Property: Vapor or sublimation pressure, kPa (Liquid); method: Closed cell (Static) method
Temperature, K	Vapor or sublimation pressure, kPa	uncertainty
348.15	123.1245	.0006
373.15	247.2197	.0012
348.15	123.0339	.0006
373.15	245.9931	.0012
348.15	122.8446	.0006
373.15	245.7931	.0012
