Measured thermophysical data. Vapor - liquid equilibria study of the ternary systems containing sucrose in aqueous solutions of ionic liquids, 1-butyl-3-methyl imidazolium bromide and 1-hexyl-3-methyl imidazolium bromide at 298.15 K and atmospheric pressure
Source: Fluid Phase Equilib., 2016, 10.1016/j.fluid.2016.08.025
Compound 1: 1-methylimidazole, C4H6N2, purity 99%
Compound 2: 1-bromobutane, C4H9Br, purity 99%
Compound 3: 1-bromohexane, C6H13Br, purity 99%
Compound 4: ethyl acetate, C4H8O2, purity 99%
Compound 5: D-sucrose, C12H22O11, purity 99.5%
Compound 6: 1-butyl-3-methylimidazolium bromide, C8H15BrN2
Compound 7: 1-hexyl-3-methylimidazolium bromide, C10H19BrN2
Compound 8: water, H2O

System: D-sucrose + water + 1-hexyl-3-methylimidazolium bromide; phases: Liquid
Fixed: Temperature, K = 293.15
Fixed: Pressure, kPa = 100
Property: (Relative) activity of water (Liquid); method: Isopiestic equilibrium
Molality, mol/kg of D-sucrose	Molality, mol/kg of 1-hexyl-3-methylimidazolium bromide	(Relative) activity of water	uncertainty
.1795	.4856	.9839	
.4025	.2777	.9839	
.1836	.497	.9837	
.4102	.2836	.9837	
.2192	.5953	.9812	
.493	.3401	.9812	
.3122	.6257	.9787	
.4947	.4593	.9787	
.3012	.7574	.9754	
.4877	.6092	.9754	
.3579	.9713	.9718	
.7465	.5147	.9718	
.4573	1.4158	.9633	
1.0563	.6428	.9633	
.5345	1.5732	.9596	
1.0902	.7719	.9596	
.8014	2.3587	.9449	
1.5437	1.0929	.9449	
.826	2.4309	.9434	
1.5325	.9874	.9434	
.9179	3.7624	.9223	
1.8081	2.1035	.9223	
.9667	4.1844	.9108	
2.0439	2.3018	.9108	
.9796	4.2394	.9105	
2.0106	2.2633	.9105	

System: D-sucrose + water + 1-butyl-3-methylimidazolium bromide; phases: Liquid
Fixed: Temperature, K = 293.15
Fixed: Pressure, kPa = 100
Property: (Relative) activity of water (Liquid); method: Isopiestic equilibrium
Molality, mol/kg of D-sucrose	Molality, mol/kg of 1-butyl-3-methylimidazolium bromide	(Relative) activity of water	uncertainty
.162	.4223	.9847	
.4045	.289	.9847	
.2175	.5673	.9793	
.5059	.36	.9793	
.3284	.5422	.9783	
.4501	.473	.9783	
.3359	.788	.9712	
.6264	.5852	.9712	
.3474	1.0333	.9646	
.7147	.7694	.9646	
.472	1.6484	.947	
1.1817	1.1064	.947	
.5658	2.3059	.9343	
1.322	1.4858	.9343	
1.0482	1.9497	.9295	
1.3192	1.6852	.9295	
.6741	2.7478	.9233	
1.5873	1.784	.9233	
1.2928	2.3845	.9104	
1.8764	1.9031	.9104	
.7255	3.701	.9032	
1.7469	2.3947	.9032	
1.2499	3.3748	.892	
2.2033	2.3429	.892	
1.4238	3.6007	.8833	
3.0921	1.6721	.8833	

System: D-sucrose + water; phases: Liquid
Fixed: Temperature, K = 298.15
Fixed: Pressure, kPa = 100
Property: (Relative) activity of water (Liquid); method: Isopiestic equilibrium
Molality, mol/kg of D-sucrose	(Relative) activity of water	uncertainty
.4335	.9919	
.6622	.9873	
.7615	.9852	
.9766	.9812	
1.0002	.9807	
1.1848	.9764	
1.2152	.9754	
1.257	.9749	
1.4139	.9718	
1.7817	.9633	
1.9074	.9596	
2.3272	.9494	
2.5131	.9449	
2.5355	.9434	
2.7387	.9377	
2.8242	.936	
4.2075	.8994	
5.328	.8697	
5.3643	.8668	

System: water + 1-butyl-3-methylimidazolium bromide; phases: Liquid
Fixed: Temperature, K = 298.15
Fixed: Pressure, kPa = 100
Property: (Relative) activity of water (Liquid); method: Isopiestic equilibrium
Molality, mol/kg of 1-butyl-3-methylimidazolium bromide	(Relative) activity of water	uncertainty
.3905	.9888	
.552	.9847	
.5905	.984	
.7393	.9804	
.7803	.9793	
.8382	.9783	
.8442	.9781	
.9499	.9754	
1.4078	.9646	
1.5666	.9606	
1.7795	.9565	
2.2778	.9452	
2.436	.9426	
2.8755	.9343	
3.083	.9295	
3.409	.9233	
4.1247	.9104	
4.41	.9032	

System: water + 1-hexyl-3-methylimidazolium bromide; phases: Liquid
Fixed: Temperature, K = 298.15
Fixed: Pressure, kPa = 100
Property: (Relative) activity of water (Liquid); method: Isopiestic equilibrium
Molality, mol/kg of 1-hexyl-3-methylimidazolium bromide	(Relative) activity of water	uncertainty
.6531	.9837	
.6579	.9839	
.835	.9812	
.9881	.9787	
1.1676	.9754	
1.4968	.9718	
2.3004	.9633	
2.5207	.9596	
3.6854	.9449	
3.7298	.9434	
4.9525	.9223	
5.5531	.9106	
5.6044	.9107	
