Measured thermophysical data. Liquid-liquid equilibrium of the ternary system water p propargyl alcohol p n-propyl acetate
Source: Fluid Phase Equilib., 2017, 10.1016/j.fluid.2016.10.023
Compound 1: 2-propyn-1-ol, C3H4O, purity 99.50%
Compound 2: n-propyl acetate, C5H10O2, purity 98.50%
Compound 3: water, H2O, purity 99.8%

System: 2-propyn-1-ol + n-propyl acetate + water; phases: Liquid mixture 2, Liquid mixture 1
Fixed: Pressure, kPa = 101
Property: Mass fraction of 2-propyn-1-ol (Liquid mixture 2); method: Chromatography
Property: Mass fraction of 2-propyn-1-ol (Liquid mixture 1); method: Chromatography
Property: Mass fraction of water (Liquid mixture 1); method: Chromatography
Temperature, K	Mass fraction of water	Mass fraction of 2-propyn-1-ol	uncertainty	Mass fraction of 2-propyn-1-ol	uncertainty	Mass fraction of water	uncertainty
279.15	.9283	.0454	.004	.0464	.004	.0141	.004
291.15	.7993	.1692	.004	.1904	.004	.0524	.004
291.15	.7496	.2172	.004	.2608	.004	.0754	.004
291.15	.6954	.2633	.004	.3214	.004	.1045	.004
291.15	.6444	.3022	.004	.3663	.004	.1398	.004
291.15	.5979	.3294	.004	.4024	.004	.1812	.004
301.15	.9251	.0537	.004	.0527	.004	.0161	.004
301.15	.8627	.113	.004	.1036	.004	.0302	.004
301.15	.7982	.1699	.004	.1904	.004	.0524	.004
301.15	.7404	.2225	.004	.2608	.004	.0754	.004
301.15	.6961	.2593	.004	.3214	.004	.1045	.004
279.15	.8789	.0928	.004	.0992	.004	.0251	.004
301.15	.6386	.3022	.004	.3663	.004	.1398	.004
301.15	.5614	.3499	.004	.4024	.004	.1812	.004
311.15	.9211	.0595	.004	.0523	.004	.0272	.004
311.15	.875	.1006	.004	.0992	.004	.0346	.004
311.15	.8004	.169	.004	.187	.004	.0589	.004
311.15	.7306	.2352	.004	.2528	.004	.0899	.004
311.15	.6926	.2632	.004	.3242	.004	.1149	.004
311.15	.626	.3061	.004	.3719	.004	.1592	.004
311.15	.5344	.3584	.004	.4078	.004	.2288	.004
321.15	.9208	.0573	.004	.0542	.004	.0313	.004
279.15	.8131	.1578	.004	.1925	.004	.0465	.004
321.15	.8707	.1058	.004	.1007	.004	.0403	.004
321.15	.7973	.1707	.004	.1854	.004	.0658	.004
321.15	.7335	.2277	.004	.255	.004	.0927	.004
321.15	.6798	.268	.004	.3165	.004	.1211	.004
321.15	.6136	.3069	.004	.3621	.004	.1618	.004
279.15	.7737	.1947	.004	.2621	.004	.0622	.004
279.15	.7333	.2296	.004	.3264	.004	.0853	.004
279.15	.6763	.273	.004	.3738	.004	.1131	.004
279.15	.6289	.3111	.004	.4152	.004	.1464	.004
291.15	.9176	.0592	.004	.0527	.004	.0161	.004
291.15	.8606	.1068	.004	.1036	.004	.0302	.004
