Measured thermophysical data. Extraction of propylbenzene from its mixtures with heptadecane using 4-methyl-N-butylpyridinium tetrafluoroborate
Source: Fluid Phase Equilib., 2012, 10.1016/j.fluid.2011.11.008
Compound 1: 1-butyl-4-methylpyridinium tetrafluoroborate, C10H16BF4N, purity 98%
Compound 2: propylbenzene, C9H12, purity 99%
Compound 3: heptadecane, C17H36, purity 99%

System: propylbenzene + heptadecane + 1-butyl-4-methylpyridinium tetrafluoroborate; phases: Liquid mixture 1, Liquid mixture 2
Fixed: Pressure, kPa = 101.3
Property: Mole fraction of heptadecane (Liquid mixture 1); method: Chromatography
Property: Mole fraction of propylbenzene (Liquid mixture 2); method: Chromatography
Property: Mole fraction of heptadecane (Liquid mixture 2); method: Chromatography
Temperature, K	Mole fraction of propylbenzene	Mole fraction of heptadecane	uncertainty	Mole fraction of propylbenzene	uncertainty	Mole fraction of heptadecane	uncertainty
313	.1465	.8535	.0005	.0334	.0005	.0016	.0005
313	.6833	.3167	.0005	.2426	.0005	.0024	.0005
323	.1434	.8566	.0005	.0373	.0005	.002	.0005
323	.2541	.7459	.0005	.067	.0005	.002	.0005
323	.3407	.6593	.0005	.0926	.0005	.0021	.0005
323	.4106	.5894	.0005	.114	.0005	.0022	.0005
323	.465	.535	.0005	.1398	.0005	.0023	.0005
323	.5115	.4885	.0005	.1605	.0005	.0025	.0005
323	.5501	.4499	.0005	.1818	.0005	.0025	.0005
323	.5845	.4155	.0005	.1967	.0005	.0026	.0005
323	.6402	.3598	.0005	.2223	.0005	.0027	.0005
313	.2576	.7424	.0005	.0614	.0005	.0017	.0005
323	.6811	.3189	.0005	.2554	.0005	.0028	.0005
333	.1409	.8591	.0005	.0405	.0005	.0023	.0005
333	.25	.75	.0005	.0733	.0005	.0024	.0005
333	.3361	.6639	.0005	.1012	.0005	.0025	.0005
333	.4053	.5947	.0005	.1257	.0005	.0026	.0005
333	.4615	.5385	.0005	.1488	.0005	.0027	.0005
333	.5079	.4921	.0005	.1711	.0005	.0028	.0005
333	.5464	.4536	.0005	.1939	.0005	.0029	.0005
333	.581	.419	.0005	.2097	.0005	.003	.0005
333	.6368	.3632	.0005	.238	.0005	.0031	.0005
313	.3448	.6552	.0005	.0847	.0005	.0018	.0005
313	.4145	.5855	.0005	.1049	.0005	.0018	.0005
313	.4682	.5318	.0005	.1313	.0005	.002	.0005
313	.5146	.4854	.0005	.1511	.0005	.0021	.0005
313	.5534	.4466	.0005	.1704	.0005	.0022	.0005
313	.5877	.4123	.0005	.1842	.0005	.0022	.0005
313	.6432	.3568	.0005	.2076	.0005	.0023	.0005
