Measured thermophysical data. Estimation physicochemical property of ionic liquid [Smim][HSO4] by semi-empirical method
Source: Fluid Phase Equilib., 2013, 10.1016/j.fluid.2013.08.026
Compound 1: 1-heptyl-3-methylimidazolium bromide, C11H21BrN2

System: 1-heptyl-3-methylimidazolium bromide; phases: Liquid
Fixed: Pressure, kPa = 101.325
Property: Mass density, kg/m3 (Liquid); method: Buoyancy - hydrostatic balance
Temperature, K	Mass density, kg/m3	uncertainty
293.15	1249	.2
298.15	1245.9	.2
303.15	1242.3	.2
308.15	1239.1	.2
313.15	1236	.2
318.15	1232.8	.2
323.15	1229.7	.2
328.15	1226.4	.2
333.15	1222.8	.2
338.15	1219.9	.2
343.15	1216.6	.2

System: 1-heptyl-3-methylimidazolium bromide; phases: Liquid, Air at 1 atmosphere
Property: Surface tension liquid-gas, N/m (Liquid); method: Maximal bubble pressure
Temperature, K	Surface tension liquid-gas, N/m	uncertainty
293.15	.0378	.0001
298.15	.0375	.0001
303.15	.0372	.0001
308.15	.0368	.0001
313.15	.0365	.0001
318.15	.0361	.0001
323.15	.0359	.0001
328.15	.0356	.0001
333.15	.0353	.0001
338.15	.035	.0001
343.15	.0346	.0001
