Measured thermophysical data. Solubility of hydrocarbons in water: Experimental measurements and modeling  using a group contribution with association equation of state (GCA-EoS)
Source: Fluid Phase Equilib., 2009, 10.1016/j.fluid.2008.09.008
Compound 1: cyclohexane, C6H12
Compound 2: hexane, C6H14
Compound 3: 2,2,4-trimethylpentane, C8H18
Compound 4: water, H2O

System: hexane + water; phases: Liquid mixture 1, Liquid mixture 2
Property: Mole fraction of hexane (Liquid mixture 1); method: Chromatography
Temperature, K	Pressure, kPa	Mole fraction of hexane	uncertainty
298.09	500	.00000208	
313.15	503	.00000322	
333.15	501	.00000308	
353.15	503	.00000458	

System: cyclohexane + water; phases: Liquid mixture 1, Liquid mixture 2
Property: Mole fraction of cyclohexane (Liquid mixture 1); method: Chromatography
Temperature, K	Pressure, kPa	Mole fraction of cyclohexane	uncertainty
298.1	501	.0000125	
313.15	502	.0000134	
333.14	500	.0000168	
353.16	502	.0000243	

System: 2,2,4-trimethylpentane + water; phases: Liquid mixture 1, Liquid mixture 2
Property: Mole fraction of 2,2,4-trimethylpentane (Liquid mixture 1); method: Chromatography
Temperature, K	Pressure, kPa	Mole fraction of 2,2,4-trimethylpentane	uncertainty
298.15	501	.000000368	
313.15	499	.000000345	
343.16	440	.000000704	
353.15	500	.000001	
