Measured thermophysical data. Measurement and correlation of saturated liquid properties and gas solubility for decane, tetradecane and their binary mixtures saturated with carbon dioxide
Source: Fluid Phase Equilib., 2013, 10.1016/j.fluid.2012.09.037
Compound 1: carbon dioxide, CO2, purity 99.998%
Compound 2: n-decane, C10H22, purity 99%
Compound 3: n-tetradecane, C14H30, purity 99%

System: n-decane + carbon dioxide; phases: Liquid
Fixed: Temperature, K = 373.2
Property: Mass density, kg/m3 (Liquid); method: Vibrating tube method
Pressure, kPa	Mole fraction of n-decane	Mass density, kg/m3	uncertainty
100	1	667.1	.1
1000	1	668.4	.1
2000	1	669.6	.1
3000	1	670.9	.1
4000	1	672.1	.1
5000	1	673.4	.1
6000	1	674.5	.1
7000	1	675.7	.1
8000	1	676.9	.1
9000	1	678.1	.1
10000	1	679.2	.1
100	.75	679.1	.1
1000	.75	680.3	.1
2000	.75	681.6	.1
3000	.75	682.7	.1
4000	.75	683.9	.1
5000	.75	685.1	.1
6000	.75	686.2	.1
7000	.75	687.3	.1
8000	.75	688.4	.1
9000	.75	689.5	.1
10000	.75	690.6	.1
100	.5	689.1	.1
1000	.5	690.3	.1
2000	.5	691.5	.1
3000	.5	692.6	.1
4000	.5	693.7	.1
5000	.5	694.8	.1
6000	.5	695.9	.1
7000	.5	697	.1
8000	.5	698	.1
9000	.5	699	.1
10000	.5	700.1	.1
100	.25	697.8	.1
1000	.25	698.8	.1
2000	.25	699.9	.1
3000	.25	701	.1
4000	.25	702	.1
5000	.25	703.1	.1
6000	.25	704.1	.1
7000	.25	705.2	.1
8000	.25	706.2	.1
9000	.25	707.2	.1
10000	.25	708.2	.1
100	0	705.4	.1
1000	0	706.5	.1
2000	0	707.6	.1
3000	0	708.6	.1
4000	0	709.6	.1
5000	0	710.7	.1
6000	0	711.6	.1
7000	0	712.6	.1
8000	0	713.6	.1
9000	0	714.6	.1
10000	0	715.5	.1

System: n-decane + carbon dioxide; phases: Gas, Liquid
Fixed: Temperature, K = 373.2
Property: Mole fraction of carbon dioxide (Gas); method: Phase equilibration
Pressure, kPa	Mole fraction of carbon dioxide	uncertainty
1120	.075	.001
1950	.124	.001
3040	.192	.001
4010	.246	.001
5110	.313	.001
6190	.367	.001

System: carbon dioxide + n-tetradecane; phases: Gas, Liquid
Fixed: Temperature, K = 373.2
Property: Mole fraction of carbon dioxide (Gas); method: Phase equilibration
Pressure, kPa	Mole fraction of carbon dioxide	uncertainty
960	.07	.001
2000	.135	.001
2970	.198	.001
4000	.261	.001
4920	.307	.001
5970	.358	.001

System: n-decane + carbon dioxide + n-tetradecane; phases: Gas, Liquid
Fixed: Temperature, K = 373.2
Property: Mole fraction of carbon dioxide (Gas); method: Phase equilibration
Pressure, kPa	Solvent: Mole fraction of n-decane	Mole fraction of carbon dioxide	uncertainty
1020	.75	.067	.002
2080	.75	.134	.002
2980	.75	.19	.002
4030	.75	.251	.002
4940	.75	.3	.002
5960	.75	.352	.002
980	.5	.067	.002
2010	.5	.131	.002
2870	.5	.184	.002
4010	.5	.253	.002
4960	.5	.306	.002
5990	.5	.357	.002
960	.25	.066	.002
2030	.25	.134	.002
3120	.25	.208	.002
4080	.25	.259	.002
5000	.25	.308	.002
6010	.25	.358	.002
