Measured thermophysical data. Isothermal vapor liquid equilibrium and molar excess Gibbs energies of two ternary systems containing either 1-butanol or 2-butanol + 1- hexene + methylbenzene at 313.15 K
Source: Fluid Phase Equilib., 2015, 10.1016/j.fluid.2014.11.010
Compound 1: 1-butanol, C4H10O, purity 99.8%
Compound 2: 2-butanol, C4H10O, purity 99.9%
Compound 3: 1-hexene, C6H12, purity 99.5%
Compound 4: methylbenzene, C7H8, purity 99.9%

System: 1-butanol; phases: Liquid, Gas
Property: Vapor or sublimation pressure, kPa (Liquid); method: Closed cell (Static) method
Temperature, K	Vapor or sublimation pressure, kPa	uncertainty
313.15	2.506	.005

System: 2-butanol; phases: Liquid, Gas
Property: Vapor or sublimation pressure, kPa (Liquid); method: Closed cell (Static) method
Temperature, K	Vapor or sublimation pressure, kPa	uncertainty
313.15	6.05	.005

System: 1-hexene; phases: Liquid, Gas
Property: Vapor or sublimation pressure, kPa (Liquid); method: Closed cell (Static) method
Temperature, K	Vapor or sublimation pressure, kPa	uncertainty
313.15	45.002	.005

System: methylbenzene; phases: Liquid, Gas
Property: Vapor or sublimation pressure, kPa (Liquid); method: Closed cell (Static) method
Temperature, K	Vapor or sublimation pressure, kPa	uncertainty
313.15	7.876	.005

System: 1-butanol + methylbenzene + 1-hexene; phases: Liquid, Gas
Fixed: Temperature, K = 313.15
Property: Vapor or sublimation pressure, kPa (Liquid); method: Closed cell (Static) method
Mole fraction of 1-butanol	Mole fraction of 1-hexene	Vapor or sublimation pressure, kPa	uncertainty
1	0	2.514	.005
.7001	.2999	32.644	.005
.6807	.2916	31.543	.005
.6647	.2848	30.616	.005
.6295	.2698	28.708	.005
.5943	.2548	26.936	.005
.5592	.2399	25.292	.005
.524	.2249	23.743	.005
.489	.2099	22.311	.005
.4539	.1949	20.963	.005
.4188	.1799	19.707	.005
.3837	.1649	18.524	.005
.3487	.1499	17.406	.005
0	1	44.985	.005
.3029	.6971	42.046	.005
.2952	.6794	41.106	.005
.2874	.6615	40.108	.005
.2723	.6267	38.233	.005
.2569	.5915	36.375	.005
.2417	.5564	34.604	.005
.2264	.5214	32.851	.005
.2112	.4865	31.162	.005
.196	.4515	29.51	.005
.1808	.4166	27.883	.005
.1656	.3817	26.279	.005
.1505	.3469	24.693	.005
0	0	7.89	.005
.2987	0	8.233	.005
.2896	.0306	10.298	.005
.2813	.0582	11.943	.005
.2681	.1026	14.439	.005
.2528	.1538	17.07	.005
.2394	.1986	19.214	.005
.2242	.2495	21.466	.005
.2096	.2984	23.474	.005
.1951	.3468	25.36	.005
.1797	.3985	27.264	.005
.1647	.4486	29.005	.005
.15	.4978	30.642	.005
1	0	2.517	.005
.6996	0	6.882	.005
.6776	.0313	9.625	.005
.6631	.0521	11.991	.005
.6289	.101	16.161	.005
.5961	.1479	19.215	.005
.5609	.1982	22.636	.005
.5276	.2457	25.131	.005
.4912	.2977	27.614	.005
.4574	.3461	29.591	.005
.422	.3966	31.439	.005
.3857	.4485	33.144	.005
.3506	.4987	34.622	.005
0	1	44.99	.005
0	.6975	34.711	.005
.0255	.6797	34.957	.005
.0504	.6623	34.846	.005
.1157	.6168	34.455	.005
.1507	.5924	34.224	.005
.2003	.5577	33.84	.005
.2504	.5228	33.447	.005
.3009	.4876	33.009	.005
.3508	.4527	32.53	.005
.401	.4178	31.987	.005
.451	.3829	31.327	.005
.501	.3481	30.574	.005
0	0	7.883	.005
0	.301	21.12	.005
.0254	.2933	21.347	.005
.0505	.2857	21.357	.005
.1002	.2708	21.235	.005
.1503	.2557	21.043	.005
.2006	.2405	20.811	.005
.2506	.2255	20.552	.005
.3006	.2104	20.263	.005
.3506	.1954	19.941	.005
.4006	.1804	19.575	.005
.4506	.1653	19.147	.005
.5006	.1503	18.654	.005

System: 2-butanol + methylbenzene + 1-hexene; phases: Liquid, Gas
Fixed: Temperature, K = 313.15
Property: Vapor or sublimation pressure, kPa (Liquid); method: Closed cell (Static) method
Mole fraction of 2-butanol	Mole fraction of 1-hexene	Vapor or sublimation pressure, kPa	uncertainty
1	0	6.052	.005
.704	.296	33.164	.005
.6862	.2886	32.319	.005
.6685	.2812	31.317	.005
.633	.2664	29.459	.005
.5976	.2516	27.763	.005
.5612	.2364	26.159	.005
.5267	.2219	24.747	.005
.4915	.2071	23.402	.005
.4562	.1923	22.138	.005
.4213	.1777	20.957	.005
.3858	.1627	19.824	.005
.3503	.1478	18.719	.005
0	1	45.013	.005
.3023	.6977	42.897	.005
.2948	.6805	42.01	.005
.287	.6626	41.052	.005
.2718	.6276	39.201	.005
.2565	.5924	37.405	.005
1	0	6.049	.005
.6991	0	9.525	.005
.6778	.0304	12.333	.005
.6615	.0538	14.286	.005
.627	.103	17.981	.005
.5932	.1514	21.145	.005
.5591	.2001	23.934	.005
.5242	.2501	26.437	.005
.4903	.2985	28.595	.005
.4562	.3474	30.527	.005
.4215	.3969	32.308	.005
.386	.4478	33.981	.005
.3513	.4974	35.472	.005
0	1	45.019	.005
0	.6971	34.759	.005
.0253	.6795	35.411	.005
.0503	.662	35.545	.005
.1008	.6268	35.458	.005
.1505	.5921	35.423	.005
.2413	.5572	35.649	.005
.226	.5221	33.937	.005
.2108	.4871	32.28	.005
.1956	.4521	30.645	.005
.1805	.4172	29.029	.005
.1653	.3822	27.431	.005
.1502	.3473	25.815	.005
0	0	7.88	.005
.2996	0	10.086	.005
.291	.0287	11.96	.005
.2832	.0548	13.471	.005
.2689	.1025	16.027	.005
.2552	.1483	18.304	.005
.2395	.2005	20.692	.005
.2253	.2481	22.716	.005
.2098	.2997	24.786	.005
.195	.3492	26.642	.005
.1802	.3985	28.391	.005
.1654	.4479	30.081	.005
.1506	.4972	31.681	.005
.2011	.5569	34.452	.005
.2511	.522	34.363	.005
.3013	.487	34.089	.005
.3514	.4521	33.322	.005
.4015	.4172	32.829	.005
.4516	.3823	32.17	.005
.5016	.3475	31.389	.005
0	0	7.878	.005
0	.2998	21.081	.005
.0252	.2922	21.617	.005
.0505	.2846	21.991	.005
.1003	.2697	22.158	.005
.1504	.2547	22.112	.005
.2004	.2397	21.978	.005
.2503	.2247	21.781	.005
.3003	.2097	21.532	.005
.3503	.1948	21.24	.005
.4004	.1798	20.896	.005
.4504	.1648	20.504	.005
.5004	.1498	20.052	.005
