Measured thermophysical data. Solubility of heptane in aqueous solutions of methyldiethanolamine (MDEA)
Source: Fluid Phase Equilib., 2016, 10.1016/j.fluid.2016.01.040
Compound 1: water, H2O, purity 99.8%
Compound 2: n-heptane, C7H16
Compound 3: N-methyldiethanolamine, C5H13NO2

System: N-methyldiethanolamine + n-heptane + water; phases: Liquid mixture 1, Liquid mixture 2
Fixed: Pressure, kPa = 101
Property: Mole fraction of n-heptane (Liquid mixture 1); method: Chromatography
Solvent: Mass fraction of N-methyldiethanolamine	Temperature, K	Mole fraction of n-heptane	uncertainty
.402	298.15	.00000625	
.402	308.15	.0000142	
.402	318.15	.0000112	
.402	328.15	.0000113	
.4499	298.15	.0000139	
.4499	308.15	.0000139	
.4499	318.15	.0000196	
.4499	328.15	.0000151	
.4999	298.15	.0000169	
.4999	308.15	.0000284	
.4999	318.15	.0000289	
.4999	328.15	.0000418	
