Measured thermophysical data. Towards automated characterisation of liquid-liquid equilibria
Source: Fluid Phase Equilib., 2014, 10.1016/j.fluid.2013.10.048
Compound 1: cyclohexane, C6H12, purity 99.7%
Compound 2: ethanol, C2H6O, purity 99.8%
Compound 3: isooctane, C8H18, purity 99.8%
Compound 4: methanol, CH4O, purity 99.9%
Compound 5: 1-octanol, C8H18O, purity 99%
Compound 6: o-xylene, C8H10, purity 99%
Compound 7: toluene, C7H8, purity 99.8%
Compound 8: water, H2O

System: methanol + toluene + cyclohexane; phases: Liquid mixture 2, Liquid mixture 1
Property: Mole fraction of toluene (Liquid mixture 2); method: Chromatography
Property: Mole fraction of cyclohexane (Liquid mixture 1); method: Chromatography
Property: Mole fraction of toluene (Liquid mixture 1); method: Chromatography
Temperature, K	Pressure, kPa	Mole fraction of cyclohexane	Mole fraction of toluene	uncertainty	Mole fraction of cyclohexane	uncertainty	Mole fraction of toluene	uncertainty
298.15	101.3	.1792	.0051	.04	.8465	.028	.0123	.02
298.15	101.3	.1995	.0116	.04	.8026	.028	.0257	.02
298.15	101.3	.2037	.0215	.04	.7595	.028	.0464	.02
298.15	101.3	.2079	.0261	.04	.7338	.028	.053	.02
298.15	101.3	.2528	.0368	.04	.6753	.028	.0697	.02
298.15	101.3	.2698	.0441	.04	.6395	.028	.0752	.02
298.15	101.3	.2778	.0504	.04	.5912	.028	.0812	.02

System: methanol + o-xylene + isooctane; phases: Liquid mixture 2, Liquid mixture 1
Property: Mole fraction of o-xylene (Liquid mixture 2); method: Chromatography
Property: Mole fraction of isooctane (Liquid mixture 1); method: Chromatography
Property: Mole fraction of o-xylene (Liquid mixture 1); method: Chromatography
Temperature, K	Pressure, kPa	Mole fraction of isooctane	Mole fraction of o-xylene	uncertainty	Mole fraction of isooctane	uncertainty	Mole fraction of o-xylene	uncertainty
298.15	101.3	.1142	0	.017	.7717	.016	0	.005
298.15	101.3	.1293	.0118	.017	.7374	.016	.036	.005
298.15	101.3	.1544	.0271	.017	.6688	.016	.0641	.005
298.15	101.3	.1658	.0343	.017	.6327	.016	.0745	.005
298.15	101.3	.1964	.0471	.017	.6215	.016	.0714	.005
298.15	101.3	.2323	.0591	.017	.5152	.016	.0891	.005
298.15	101.3	.2178	.0561	.017	.4938	.016	.0918	.005
298.15	101.3	.2521	.066	.017	.4791	.016	.0901	.005

System: methanol + o-xylene + isooctane; phases: Liquid mixture 2, Liquid mixture 1
Property: Mole fraction of o-xylene (Liquid mixture 2); method: Chromatography
Property: Mole fraction of isooctane (Liquid mixture 1); method: Chromatography
Property: Mole fraction of o-xylene (Liquid mixture 1); method: Chromatography
Temperature, K	Pressure, kPa	Mole fraction of isooctane	Mole fraction of o-xylene	uncertainty	Mole fraction of isooctane	uncertainty	Mole fraction of o-xylene	uncertainty
298.15	101.3	.0891	0	.026	.8407	.025	0	.001
298.15	101.3	.0845	.0117	.026	.7962	.025	.048	.001
298.15	101.3	.0931	.0368	.026	.6917	.025	.1226	.001
298.15	101.3	.1138	.0492	.026	.6294	.025	.1502	.001
298.15	101.3	.1335	.0616	.026	.5752	.025	.1657	.001

System: ethanol + 1-octanol + water; phases: Liquid mixture 2, Liquid mixture 1
Property: Mole fraction of ethanol (Liquid mixture 2); method: Chromatography
Property: Mole fraction of water (Liquid mixture 1); method: Chromatography
Property: Mole fraction of ethanol (Liquid mixture 1); method: Chromatography
Temperature, K	Pressure, kPa	Mole fraction of water	Mole fraction of ethanol	uncertainty	Mole fraction of water	uncertainty	Mole fraction of ethanol	uncertainty
318.15	101.3	.9929	0	.016	.2679	.01	0	.004
318.15	101.3	.9669	.0253	.016	.2891	.01	.0861	.004
318.15	101.3	.9406	.051	.016	.3159	.01	.1678	.004
318.15	101.3	.906	.0836	.016	.3681	.01	.2483	.004
318.15	101.3	.8939	.0959	.016	.3849	.01	.276	.004
318.15	101.3	.8702	.1227	.016	.4178	.01	.3013	.004
318.15	101.3	.8525	.1372	.016	.4991	.01	.3101	.004
318.15	101.3	.8121	.179	.016	.6556	.01	.2607	.004
