Measured thermophysical data. Phase equilibria for the ternary systems ethanol, water + ethylene glycol or + glycerol at 101.3 kPa
Source: Fluid Phase Equilib., 2013, 10.1016/j.fluid.2012.12.022
Compound 1: ethanol, C2H6O, purity 99.5%
Compound 2: water, H2O, purity 99.7%
Compound 3: glycerol, C3H8O3, purity 99.6%
Compound 4: ethylene glycol, C2H6O2, purity 99.5%

System: ethanol; phases: Liquid
Fixed: Pressure, kPa = 101.325
Property: Mass density, kg/m3 (Liquid); method: Vibrating tube method
Temperature, K	Mass density, kg/m3	uncertainty
298.15	785.18	.01

System: ethanol; phases: Liquid
Fixed: Pressure, kPa = 101.325
Property: Refractive index (Na D-line) (Liquid); method: Standard Abbe refractometry
Temperature, K	Refractive index (Na D-line)	uncertainty
298.15	1.3594	.0002

System: ethanol; phases: Liquid, Gas
Property: Normal boiling temperature, K (Liquid); method: Distillation
Normal boiling temperature, K	uncertainty
351.05	.02

System: water; phases: Liquid
Fixed: Pressure, kPa = 101.325
Property: Mass density, kg/m3 (Liquid); method: Vibrating tube method
Temperature, K	Mass density, kg/m3	uncertainty
298.15	997.06	.01

System: water; phases: Liquid
Fixed: Pressure, kPa = 101.325
Property: Refractive index (Na D-line) (Liquid); method: Standard Abbe refractometry
Temperature, K	Refractive index (Na D-line)	uncertainty
298.15	1.3325	.0002

System: water; phases: Liquid, Gas
Property: Normal boiling temperature, K (Liquid); method: Distillation
Normal boiling temperature, K	uncertainty
373.15	.02

System: glycerol; phases: Liquid
Fixed: Pressure, kPa = 101.325
Property: Mass density, kg/m3 (Liquid); method: Vibrating tube method
Temperature, K	Mass density, kg/m3	uncertainty
298.15	1258.52	.01

System: glycerol; phases: Liquid
Fixed: Pressure, kPa = 101.325
Property: Refractive index (Na D-line) (Liquid); method: Standard Abbe refractometry
Temperature, K	Refractive index (Na D-line)	uncertainty
298.15	1.4726	.0002

System: glycerol; phases: Liquid, Gas
Property: Normal boiling temperature, K (Liquid); method: Distillation
Normal boiling temperature, K	uncertainty
563.05	.02

System: ethylene glycol; phases: Liquid
Fixed: Pressure, kPa = 101.325
Property: Mass density, kg/m3 (Liquid); method: Vibrating tube method
Temperature, K	Mass density, kg/m3	uncertainty
298.15	1109.9	.01

System: ethylene glycol; phases: Liquid
Fixed: Pressure, kPa = 101.325
Property: Refractive index (Na D-line) (Liquid); method: Standard Abbe refractometry
Temperature, K	Refractive index (Na D-line)	uncertainty
298.15	1.4308	.0002

System: ethylene glycol; phases: Liquid, Gas
Property: Normal boiling temperature, K (Liquid); method: Distillation
Normal boiling temperature, K	uncertainty
470.27	.02

System: ethanol + ethylene glycol + water; phases: Liquid, Gas
Property: Mole fraction of water (Liquid); method: Chromatography
Property: Mole fraction of ethanol (Gas); method: Chromatography
Property: Mole fraction of water (Gas); method: Chromatography
Temperature, K	Pressure, kPa	Mole fraction of ethanol	Mole fraction of water	uncertainty	Mole fraction of ethanol	uncertainty	Mole fraction of water	uncertainty
388.59	10264.2225	.029	.426	.002	.245	.002	.735	.002
383.88	10264.2225	.179	.094	.002	.851	.002	.137	.002
359.04	10264.2225	.198	.685	.002	.556	.002	.443	.002
375.64	10264.2225	.198	.225	.002	.741	.002	.253	.002
370.64	10264.2225	.201	.304	.002	.688	.002	.31	.002
356.85	10264.2225	.201	.764	.002	.552	.002	.447	.002
366.08	10264.2225	.203	.412	.002	.638	.002	.361	.002
362.76	10264.2225	.206	.527	.002	.596	.002	.403	.002
379.88	10264.2225	.249	.032	.002	.953	.002	.034	.002
370.75	10264.2225	.286	.154	.002	.837	.002	.16	.002
366.34	10264.2225	.294	.248	.002	.77	.002	.229	.002
374.6	10264.2225	.04	.682	.002	.27	.002	.72	.002
362.71	10264.2225	.301	.361	.002	.71	.002	.289	.002
359.45	10264.2225	.306	.476	.002	.659	.002	.34	.002
356.41	10264.2225	.307	.6	.002	.617	.002	.382	.002
367.12	10264.2225	.392	.09	.002	.915	.002	.083	.002
354.3	10264.2225	.399	.569	.002	.636	.002	.363	.002
363.19	10264.2225	.399	.206	.002	.823	.002	.176	.002
357.1	10264.2225	.402	.432	.002	.69	.002	.309	.002
359.6	10264.2225	.417	.319	.002	.751	.002	.248	.002
365.21	10264.2225	.477	.041	.002	.965	.002	.034	.002
360.81	10264.2225	.498	.161	.002	.862	.002	.136	.002
408.43	10264.2225	.069	.078	.002	.693	.002	.235	.002
357.83	10264.2225	.503	.268	.002	.789	.002	.21	.002
354.91	10264.2225	.506	.389	.002	.718	.002	.281	.002
359.44	10264.2225	.596	.097	.002	.915	.002	.084	.002
356.32	10264.2225	.599	.21	.002	.828	.002	.171	.002
352.7	10264.2225	.637	.329	.002	.745	.002	.254	.002
358.05	10264.2225	.694	.04	.002	.965	.002	.034	.002
353.83	10264.2225	.728	.172	.002	.85	.002	.149	.002
353.57	10264.2225	.811	.097	.002	.909	.002	.09	.002
352.37	10264.2225	.91	.046	.002	.953	.002	.046	.002
375.46	10264.2225	.087	.471	.002	.454	.002	.54	.002
396.32	10264.2225	.088	.16	.002	.625	.002	.348	.002
366.35	10264.2225	.088	.714	.002	.417	.002	.582	.002
370.35	10264.2225	.088	.593	.002	.461	.002	.538	.002
381.01	10264.2225	.089	.355	.002	.491	.002	.499	.002
362.42	10264.2225	.092	.824	.002	.445	.002	.554	.002

System: glycerol + ethanol + water; phases: Liquid, Gas
Property: Mole fraction of water (Liquid); method: Chromatography
Property: Mole fraction of ethanol (Gas); method: Chromatography
Property: Mole fraction of water (Gas); method: Chromatography
Temperature, K	Pressure, kPa	Mole fraction of ethanol	Mole fraction of water	uncertainty	Mole fraction of ethanol	uncertainty	Mole fraction of water	uncertainty
370.37	10264.2225	.065	.676	.002	.473	.002	.527	.002
356.89	10264.2225	.209	.681	.002	.594	.002	.406	.002
356.05	10264.2225	.245	.71	.002	.586	.002	.414	.002
356.35	10264.2225	.258	.706	.002	.605	.002	.395	.002
355.77	10264.2225	.286	.626	.002	.644	.002	.356	.002
358.4	10264.2225	.302	.42	.002	.746	.002	.254	.002
359.67	10264.2225	.307	.325	.002	.804	.002	.196	.002
363.75	10264.2225	.308	.196	.002	.876	.002	.124	.002
354.95	10264.2225	.344	.632	.002	.612	.002	.388	.002
365.87	10264.2225	.365	.076	.002	.953	.002	.047	.002
362	10264.2225	.411	.101	.002	.942	.002	.058	.002
359.77	10264.2225	.092	.842	.002	.491	.002	.509	.002
358.75	10264.2225	.416	.205	.002	.872	.002	.128	.002
353.84	10264.2225	.43	.533	.002	.647	.002	.353	.002
353.93	10264.2225	.465	.425	.002	.73	.002	.27	.002
353.92	10264.2225	.47	.478	.002	.694	.002	.306	.002
356.72	10264.2225	.491	.201	.002	.872	.002	.128	.002
355.07	10264.2225	.497	.375	.002	.761	.002	.239	.002
354.79	10264.2225	.504	.333	.002	.79	.002	.21	.002
358.9	10264.2225	.57	.043	.002	.972	.002	.028	.002
354.82	10264.2225	.583	.272	.002	.814	.002	.186	.002
354.11	10264.2225	.584	.315	.002	.783	.002	.217	.002
362	10264.2225	.097	.747	.002	.511	.002	.489	.002
356.99	10264.2225	.608	.092	.002	.923	.002	.077	.002
352.84	10264.2225	.671	.276	.002	.787	.002	.213	.002
355.23	10264.2225	.7	.122	.002	.91	.002	.089	.002
353.8	10264.2225	.7	.204	.002	.846	.002	.154	.002
355.32	10264.2225	.777	.036	.002	.975	.002	.025	.002
353.61	10264.2225	.811	.102	.002	.921	.002	.079	.002
355.53	10264.2225	.898	.037	.002	.963	.002	.037	.002
368.7	10264.2225	.1	.553	.002	.6	.002	.4	.002
380.87	10264.2225	.107	.305	.002	.668	.002	.332	.002
372.52	10264.2225	.175	.242	.002	.82	.002	.18	.002
356.67	10264.2225	.19	.756	.002	.58	.002	.42	.002
367.73	10264.2225	.197	.296	.002	.793	.002	.207	.002
363.85	10264.2225	.198	.424	.002	.725	.002	.275	.002
