Measured thermophysical data. Vapour liquid equilibria and excess enthalpies of the binary mixtures 1-pentanol  with 2,2,4-trimethylpentane or n-heptane
Source: Fluid Phase Equilib., 2013, 10.1016/j.fluid.2012.11.005
Compound 1: pentan-1-ol, C5H12O, purity 99.7%
Compound 2: isooctane, C8H18, purity 99.7%
Compound 3: heptane, C7H16, purity 99.7%

System: pentan-1-ol + isooctane; phases: Gas, Liquid
Property: Mole fraction of pentan-1-ol (Gas); method: Density calibration data
Mole fraction of pentan-1-ol	Temperature, K	Mole fraction of pentan-1-ol	uncertainty
0	313.15	0	.0005
.0492	313.15	.0294	.0005
.0997	313.15	.0356	.0005
.1482	313.15	.0382	.0005
.199	313.15	.0406	.0005
.2483	313.15	.0432	.0005
.2997	313.15	.0459	.0005
.3495	313.15	.0485	.0005
.3999	313.15	.0511	.0005
.4006	313.15	.0511	.0005
.45	313.15	.0536	.0005
.4508	313.15	.0536	.0005
.5003	313.15	.0563	.0005
.5011	313.15	.0563	.0005
.5504	313.15	.0593	.0005
.5509	313.15	.0594	.0005
.6002	313.15	.0631	.0005
.6012	313.15	.0631	.0005
.6515	313.15	.068	.0005
.7011	313.15	.0742	.0005
.7511	313.15	.0829	.0005
.8007	313.15	.0954	.0005
.8472	313.15	.114	.0005
.9007	313.15	.1553	.0005
.9507	313.15	.2598	.0005
1	313.15	1	.0005

System: pentan-1-ol + isooctane; phases: Liquid, Gas
Property: Vapor or sublimation pressure, kPa (Liquid); method: Closed cell (Static) method
Mole fraction of pentan-1-ol	Temperature, K	Vapor or sublimation pressure, kPa	uncertainty
0	313.15	12.952	.005
.0492	313.15	12.987	.005
.0997	313.15	12.876	.005
.1482	313.15	12.762	.005
.199	313.15	12.623	.005
.2483	313.15	12.52	.005
.2997	313.15	12.311	.005
.3495	313.15	12.134	.005
.3999	313.15	11.934	.005
.4006	313.15	11.897	.005
.45	313.15	11.71	.005
.4508	313.15	11.674	.005
.5003	313.15	11.45	.005
.5011	313.15	11.415	.005
.5504	313.15	11.145	.005
.5509	313.15	11.108	.005
.6002	313.15	10.783	.005
.6012	313.15	10.734	.005
.6515	313.15	10.276	.005
.7011	313.15	9.71	.005
.7511	313.15	8.984	.005
.8007	313.15	8.069	.005
.8472	313.15	6.979	.005
.9007	313.15	5.323	.005
.9507	313.15	3.355	.005
1	313.15	.893	.005

System: pentan-1-ol + isooctane; phases: Liquid
Fixed: Pressure, kPa = 101
Property: Excess molar enthalpy (molar enthalpy of mixing), kJ/mol (Liquid); method: Flow calorimetry
Temperature, K	Mole fraction of pentan-1-ol	Excess molar enthalpy (molar enthalpy of mixing), kJ/mol	uncertainty
298.15	0	0	0
298.15	.0508	.3763	.0018815
298.15	.0999	.4696	.002348
298.15	.1501	.5278	.002639
298.15	.2008	.5721	.0028605
298.15	.25	.5989	.0029945
298.15	.2999	.6185	.0030925
298.15	.3516	.6178	.003089
298.15	.4025	.615	.003075
298.15	.4514	.6059	.0030295
298.15	.5025	.5822	.002911
298.15	.5516	.5493	.0027465
298.15	.6025	.5066	.002533
298.15	.6513	.4566	.002283
298.15	.7015	.3979	.0019895
298.15	.7512	.3354	.001677
298.15	.8003	.2679	.0013395
298.15	.8503	.2009	.0010045
298.15	.9008	.1302	.000651
298.15	.9503	.0616	.000308
298.15	1	0	0
313.15	0	0	0
313.15	.051	.5181	.0025905
313.15	.1003	.6479	.0032395
313.15	.1506	.7292	.003646
313.15	.2019	.7806	.003903
313.15	.2512	.8136	.004068
313.15	.3012	.8322	.004161
313.15	.3517	.8385	.0041925
313.15	.4026	.8321	.0041605
313.15	.4514	.8132	.004066
313.15	.5026	.7835	.0039175
313.15	.5517	.7385	.0036925
313.15	.6026	.6851	.0034255
313.15	.6513	.6194	.003097
313.15	.7016	.5458	.002729
313.15	.7513	.4619	.0023095
313.15	.8003	.3681	.0018405
313.15	.8503	.2736	.001368
313.15	.9008	.1769	.0008845
313.15	.9503	.0859	.0004295
313.15	1	0	0

System: pentan-1-ol + heptane; phases: Gas, Liquid
Property: Mole fraction of pentan-1-ol (Gas); method: Density calibration data
Mole fraction of pentan-1-ol	Temperature, K	Mole fraction of pentan-1-ol	uncertainty
0	313.15	0	.0005
.049	313.15	.0315	.0005
.0997	313.15	.0376	.0005
.1498	313.15	.0402	.0005
.2003	313.15	.0427	.0005
.2502	313.15	.0454	.0005
.3002	313.15	.048	.0005
.3503	313.15	.0505	.0005
.3999	313.15	.0528	.0005
.4008	313.15	.0529	.0005
.4504	313.15	.0553	.0005
.4511	313.15	.0553	.0005
.5005	313.15	.058	.0005
.503	313.15	.0581	.0005
.5505	313.15	.0612	.0005
.5506	313.15	.0612	.0005
.6004	313.15	.0652	.0005
.6026	313.15	.0654	.0005
.6513	313.15	.0702	.0005
.7023	313.15	.0768	.0005
.7513	313.15	.0852	.0005
.8015	313.15	.0979	.0005
.8634	313.15	.1267	.0005
1	313.15	1	.0005

System: pentan-1-ol + heptane; phases: Liquid, Gas
Property: Vapor or sublimation pressure, kPa (Liquid); method: Closed cell (Static) method
Mole fraction of pentan-1-ol	Temperature, K	Vapor or sublimation pressure, kPa	uncertainty
0	313.15	12.324	.005
.049	313.15	12.377	.005
.0997	313.15	12.292	.005
.1498	313.15	12.183	.005
.2003	313.15	12.061	.005
.2502	313.15	11.922	.005
.3002	313.15	11.771	.005
.3503	313.15	11.602	.005
.3999	313.15	11.417	.005
.4008	313.15	11.455	.005
.4504	313.15	11.207	.005
.4511	313.15	11.238	.005
.5005	313.15	10.962	.005
.503	313.15	10.972	.005
.5505	313.15	10.672	.005
.5506	313.15	10.693	.005
.6004	313.15	10.318	.005
.6026	313.15	10.314	.005
.6513	313.15	9.893	.005
.7023	313.15	9.317	.005
.7513	313.15	8.656	.005
.8015	313.15	7.752	.005
.8634	313.15	6.306	.005
1	313.15	.908	.005

System: pentan-1-ol + heptane; phases: Liquid
Fixed: Pressure, kPa = 101
Property: Excess molar enthalpy (molar enthalpy of mixing), kJ/mol (Liquid); method: Flow calorimetry
Temperature, K	Mole fraction of pentan-1-ol	Excess molar enthalpy (molar enthalpy of mixing), kJ/mol	uncertainty
298.15	0	0	0
298.15	.0563	.3681	.0018405
298.15	.1109	.4639	.0023195
298.15	.1664	.525	.002625
298.15	.2203	.5595	.0027975
298.15	.2749	.5911	.0029555
298.15	.3279	.6047	.0030235
298.15	.3793	.6089	.0030445
298.15	.4314	.601	.003005
298.15	.4818	.5821	.0029105
298.15	.5328	.5499	.0027495
298.15	.5822	.5094	.002547
298.15	.6281	.461	.002305
298.15	.6765	.4115	.0020575
298.15	.7235	.3554	.001777
298.15	.7725	.297	.001485
298.15	.8182	.2408	.001204
298.15	.8643	.1786	.000893
298.15	.9104	.118	.00059
298.15	.9552	.0579	.0002895
298.15	1	0	0
313.15	0	0	0
313.15	.0484	.4736	.002368
313.15	.0981	.6175	.0030875
313.15	.149	.6917	.0034585
313.15	.1985	.7411	.0037055
313.15	.2491	.7825	.0039125
313.15	.2983	.7944	.003972
313.15	.3483	.8043	.0040215
313.15	.3991	.7803	.0039015
313.15	.4484	.7781	.0038905
313.15	.4984	.7403	.0037015
313.15	.5488	.6966	.003483
313.15	.5977	.6634	.003317
313.15	.6489	.6005	.0030025
313.15	.7003	.519	.002595
313.15	.7483	.4441	.0022205
313.15	.7981	.3537	.0017685
313.15	.8497	.2667	.0013335
313.15	.8995	.1759	.0008795
313.15	.9491	.0822	.000411
313.15	1	0	0
