Measured thermophysical data. Effect of solvent on the volumetric behavior ofN,N' -salicylidenephenyl diamine (Salophen) Schiff base at differenttemperatures (288.15 - 318.15) K
Source: Fluid Phase Equilib., 2013, 10.1016/j.fluid.2013.05.001
Compound 1: DMSO, C2H6OS, purity 99.9%
Compound 2: acetamide, N,N-dimethyl-, C4H9NO, purity 99%
Compound 3: 1,4-dioxane, C4H8O2, purity 99.5%
Compound 4: tetrahydrofuran, C4H8O, purity 99.8%
Compound 5: salophen, C15H13NO4

System: DMSO; phases: Liquid
Property: Mass density, kg/m3 (Liquid); method: Vibrating tube method
Pressure, kPa	Temperature, K	Mass density, kg/m3	uncertainty
85.9	298.15	1095.29	.5

System: DMSO; phases: Liquid
Property: Viscosity, Pa*s (Liquid); method: Capillary tube (Ostwald; Ubbelohde) method
Pressure, kPa	Temperature, K	Viscosity, Pa*s	uncertainty
85.9	298.15	.001867	.000002

System: DMSO; phases: Liquid
Property: Refractive index (Na D-line) (Liquid); method: Standard Abbe refractometry
Pressure, kPa	Temperature, K	Refractive index (Na D-line)	uncertainty
85.9	298.15	1.4762	.0001

System: acetamide, N,N-dimethyl-; phases: Liquid
Property: Mass density, kg/m3 (Liquid); method: Vibrating tube method
Pressure, kPa	Temperature, K	Mass density, kg/m3	uncertainty
85.9	298.15	936.57	.5

System: acetamide, N,N-dimethyl-; phases: Liquid
Property: Viscosity, Pa*s (Liquid); method: Capillary tube (Ostwald; Ubbelohde) method
Pressure, kPa	Temperature, K	Viscosity, Pa*s	uncertainty
85.9	298.15	.000961	.000002

System: acetamide, N,N-dimethyl-; phases: Liquid
Property: Refractive index (Na D-line) (Liquid); method: Standard Abbe refractometry
Pressure, kPa	Temperature, K	Refractive index (Na D-line)	uncertainty
85.9	298.15	1.436	.0001

System: 1,4-dioxane; phases: Liquid
Property: Mass density, kg/m3 (Liquid); method: Vibrating tube method
Pressure, kPa	Temperature, K	Mass density, kg/m3	uncertainty
85.9	298.15	1027.93	.5

System: 1,4-dioxane; phases: Liquid
Property: Viscosity, Pa*s (Liquid); method: Capillary tube (Ostwald; Ubbelohde) method
Pressure, kPa	Temperature, K	Viscosity, Pa*s	uncertainty
85.9	298.15	.001158	.000002

System: 1,4-dioxane; phases: Liquid
Property: Refractive index (Na D-line) (Liquid); method: Standard Abbe refractometry
Pressure, kPa	Temperature, K	Refractive index (Na D-line)	uncertainty
85.9	298.15	1.4188	.0001

System: tetrahydrofuran; phases: Liquid
Property: Mass density, kg/m3 (Liquid); method: Vibrating tube method
Pressure, kPa	Temperature, K	Mass density, kg/m3	uncertainty
85.9	298.15	882.02	.5

System: tetrahydrofuran; phases: Liquid
Property: Viscosity, Pa*s (Liquid); method: Capillary tube (Ostwald; Ubbelohde) method
Pressure, kPa	Temperature, K	Viscosity, Pa*s	uncertainty
85.9	298.15	.000448	.000002

System: tetrahydrofuran; phases: Liquid
Property: Refractive index (Na D-line) (Liquid); method: Standard Abbe refractometry
Pressure, kPa	Temperature, K	Refractive index (Na D-line)	uncertainty
85.9	298.15	1.4047	.0001

System: DMSO + salophen; phases: Liquid
Fixed: Pressure, kPa = 85.9
Property: Mass density, kg/m3 (Liquid); method: Vibrating tube method
Temperature, K	Molality, mol/kg of salophen	Mass density, kg/m3	uncertainty
288.15	.0099	1105.64	.5
288.15	.0307	1106.33	.5
288.15	.0493	1106.94	.5
288.15	.07	1107.62	.5
288.15	.0911	1108.33	.5
288.15	.1086	1108.91	.5
288.15	.1311	1109.66	.5
288.15	.1483	1110.22	.5
288.15	.1717	1111	.5
288.15	.0099	1095.61	.5
288.15	.0307	1096.3	.5
288.15	.0493	1096.92	.5
288.15	.07	1097.62	.5
288.15	.0911	1098.35	.5
288.15	.1086	1098.97	.5
288.15	.1311	1099.71	.5
288.15	.1483	1100.31	.5
288.15	.1717	1101.12	.5
308.15	.0099	1085.58	.5
308.15	.0307	1086.29	.5
308.15	.0493	1086.93	.5
308.15	.07	1087.63	.5
308.15	.0911	1088.38	.5
308.15	.1086	1089	.5
308.15	.1311	1089.77	.5
308.15	.1483	1090.36	.5
308.15	.1717	1091.18	.5
318.15	.0099	1075.56	.5
318.15	.0307	1076.29	.5
318.15	.0493	1076.95	.5
318.15	.07	1077.68	.5
318.15	.0911	1078.44	.5
318.15	.1086	1079.07	.5
318.15	.1311	1079.87	.5
318.15	.1483	1080.47	.5
318.15	.1717	1081.32	.5

System: salophen + acetamide, N,N-dimethyl-; phases: Liquid
Fixed: Pressure, kPa = 85.9
Property: Mass density, kg/m3 (Liquid); method: Vibrating tube method
Temperature, K	Molality, mol/kg of salophen	Mass density, kg/m3	uncertainty
288.15	.0106	946.52	.5
288.15	.0323	948.07	.5
288.15	.0497	949.32	.5
288.15	.0704	950.78	.5
288.15	.0899	952.18	.5
288.15	.1092	953.53	.5
288.15	.129	954.93	.5
288.15	.1492	956.35	.5
288.15	.1742	958.13	.5
288.15	.0106	937.32	.5
288.15	.0323	938.87	.5
288.15	.0497	940.11	.5
288.15	.0704	941.6	.5
288.15	.0899	942.99	.5
288.15	.1092	944.36	.5
288.15	.129	945.78	.5
288.15	.1492	947.22	.5
288.15	.1742	949.07	.5
308.15	.0106	928.08	.5
308.15	.0323	929.62	.5
308.15	.0497	930.86	.5
308.15	.0704	932.36	.5
308.15	.0899	933.77	.5
308.15	.1092	935.17	.5
308.15	.129	936.59	.5
308.15	.1492	938.07	.5
308.15	.1742	939.94	.5
318.15	.0106	918.85	.5
318.15	.0323	920.4	.5
318.15	.0497	921.65	.5
318.15	.0704	923.15	.5
318.15	.0899	924.58	.5
318.15	.1092	925.99	.5
318.15	.129	927.42	.5
318.15	.1492	928.91	.5
318.15	.1742	930.75	.5

System: salophen + 1,4-dioxane; phases: Liquid
Fixed: Pressure, kPa = 85.9
Property: Mass density, kg/m3 (Liquid); method: Vibrating tube method
Temperature, K	Molality, mol/kg of salophen	Mass density, kg/m3	uncertainty
288.15	.0106	1039.84	.5
288.15	.0284	1040.81	.5
288.15	.0495	1041.93	.5
288.15	.0693	1042.96	.5
288.15	.0855	1043.79	.5
288.15	.1104	1045.04	.5
288.15	.1313	1046.05	.5
288.15	.1482	1046.86	.5
288.15	.1707	1047.91	.5
288.15	.0106	1028.52	.5
288.15	.0284	1029.51	.5
288.15	.0495	1030.66	.5
288.15	.0693	1031.72	.5
288.15	.0855	1032.57	.5
288.15	.1104	1033.86	.5
288.15	.1313	1034.92	.5
288.15	.1482	1035.78	.5
288.15	.1707	1036.89	.5
308.15	.0106	1017.22	.5
308.15	.0284	1018.23	.5
308.15	.0495	1019.39	.5
308.15	.0693	1020.48	.5
308.15	.0855	1021.35	.5
308.15	.1104	1022.68	.5
308.15	.1313	1023.75	.5
308.15	.1482	1024.62	.5
308.15	.1707	1025.75	.5
318.15	.0106	1005.88	.5
318.15	.0284	1006.9	.5
318.15	.0495	1008.09	.5
318.15	.0693	1009.19	.5
318.15	.0855	1010.08	.5
318.15	.1104	1011.41	.5
318.15	.1313	1012.5	.5
318.15	.1482	1013.37	.5
318.15	.1707	1014.52	.5

System: tetrahydrofuran + salophen; phases: Liquid
Fixed: Pressure, kPa = 85.9
Property: Mass density, kg/m3 (Liquid); method: Vibrating tube method
Temperature, K	Molality, mol/kg of salophen	Mass density, kg/m3	uncertainty
288.15	.0103	893.79	.5
288.15	.0316	895.65	.5
288.15	.0496	897.21	.5
288.15	.0699	898.95	.5
288.15	.0908	900.71	.5
288.15	.1099	902.31	.5
288.15	.1293	903.88	.5
288.15	.1498	905.55	.5
288.15	.1704	907.21	.5
288.15	.0103	882.94	.5
288.15	.0316	884.82	.5
288.15	.0496	886.39	.5
288.15	.0699	888.13	.5
288.15	.0908	889.9	.5
288.15	.1099	891.51	.5
288.15	.1293	893.11	.5
288.15	.1498	894.79	.5
288.15	.1704	896.46	.5
308.15	.0103	871.92	.5
308.15	.0316	873.82	.5
308.15	.0496	875.41	.5
308.15	.0699	877.17	.5
308.15	.0908	878.97	.5
308.15	.1099	880.59	.5
308.15	.1293	882.21	.5
308.15	.1498	883.9	.5
308.15	.1704	885.6	.5
318.15	.0103	860.78	.5
318.15	.0316	862.7	.5
318.15	.0496	864.3	.5
318.15	.0699	866.08	.5
318.15	.0908	867.89	.5
318.15	.1099	869.54	.5
318.15	.1293	871.17	.5
318.15	.1498	872.89	.5
318.15	.1704	874.58	.5
