Measured thermophysical data. Effect of composition and temperature variations on thermophysical properties of binary and ternary mixtures of 1-ethyl-3-methylimidazolium ethylsulfate with 1-butanol and /or methanol
Source: Fluid Phase Equilib., 2016, 10.1016/j.fluid.2017.01.019
Compound 1: 1-ethyl-3-methylimidazolium ethyl sulfate, C8H16N2O4S, purity 95%
Compound 2: 1-butanol, C4H10O, purity 99%
Compound 3: methanol, CH4O, purity 99%

System: 1-ethyl-3-methylimidazolium ethyl sulfate; phases: Liquid
Fixed: Pressure, kPa = 101.325
Property: Mass density, kg/m3 (Liquid); method: Vibrating tube method
Temperature, K	Mass density, kg/m3	uncertainty
298.15	1236.328	
303.15	1232.932	
308.15	1229.568	
313.15	1226.212	
318.15	1222.868	
323.15	1219.54	

System: 1-ethyl-3-methylimidazolium ethyl sulfate; phases: Liquid
Fixed: Pressure, kPa = 101.325
Property: Viscosity, Pa*s (Liquid); method: Falling or rolling sphere viscometry
Temperature, K	Viscosity, Pa*s	uncertainty
298.15	.09621	
303.15	.07589	
308.15	.06073	
313.15	.04938	
318.15	.04093	
323.15	.03382	

System: 1-ethyl-3-methylimidazolium ethyl sulfate; phases: Liquid
Fixed: Pressure, kPa = 101.325
Property: Speed of sound, m/s (Liquid); method: Sing-around technique in a fixed-path interferometer
Temperature, K	Speed of sound, m/s	uncertainty
298.15	1682.32	
303.15	1670.04	
308.15	1657.92	
313.15	1645.92	
318.15	1634.07	
323.15	1622.34	

System: 1-butanol; phases: Liquid
Fixed: Pressure, kPa = 101.325
Property: Mass density, kg/m3 (Liquid); method: Vibrating tube method
Temperature, K	Mass density, kg/m3	uncertainty
298.15	806.27	
303.15	802.42	
308.15	798.536	
313.15	794.617	
318.15	790.655	
323.15	786.645	

System: 1-butanol; phases: Liquid
Fixed: Pressure, kPa = 101.325
Property: Viscosity, Pa*s (Liquid); method: Falling or rolling sphere viscometry
Temperature, K	Viscosity, Pa*s	uncertainty
298.15	.00261	
303.15	.00231	
308.15	.00207	
313.15	.00185	
318.15	.00166	
323.15	.0015	

System: 1-butanol; phases: Liquid
Fixed: Pressure, kPa = 101.325
Property: Speed of sound, m/s (Liquid); method: Sing-around technique in a fixed-path interferometer
Temperature, K	Speed of sound, m/s	uncertainty
298.15	1239.82	
303.15	1223.19	
308.15	1206.34	
313.15	1189.73	
318.15	1173.13	
323.15	1156.55	

System: methanol; phases: Liquid
Fixed: Pressure, kPa = 101.325
Property: Mass density, kg/m3 (Liquid); method: Vibrating tube method
Temperature, K	Mass density, kg/m3	uncertainty
298.15	786.884	
303.15	782.158	
308.15	777.414	
313.15	772.64	
318.15	767.844	
323.15	763.028	

System: methanol; phases: Liquid
Fixed: Pressure, kPa = 101.325
Property: Viscosity, Pa*s (Liquid); method: Falling or rolling sphere viscometry
Temperature, K	Viscosity, Pa*s	uncertainty
298.15	.00055	
303.15	.00051	
308.15	.00048	
313.15	.00045	
318.15	.00043	
323.15	.00041	

System: methanol; phases: Liquid
Fixed: Pressure, kPa = 101.325
Property: Speed of sound, m/s (Liquid); method: Sing-around technique in a fixed-path interferometer
Temperature, K	Speed of sound, m/s	uncertainty
298.15	1103.34	
303.15	1086.89	
308.15	1070.63	
313.15	1054.47	
318.15	1038.52	
323.15	1022.52	

System: 1-butanol + 1-ethyl-3-methylimidazolium ethyl sulfate; phases: Liquid
Fixed: Pressure, kPa = 100
Property: Mass density, kg/m3 (Liquid); method: Vibrating tube method
Temperature, K	Mole fraction of 1-ethyl-3-methylimidazolium ethyl sulfate	Mass density, kg/m3	uncertainty
289.15	0	806.27	
289.15	.1071	894.433	
289.15	.1982	955.118	
289.15	.3069	1015.597	
289.15	.3985	1058.765	
289.15	.5048	1101.82	
289.15	.603	1136.023	
289.15	.7158	1169.994	
289.15	.7951	1191.103	
289.15	.9185	1219.875	
289.15	1	1236.328	
303.15	0	802.42	
303.15	.1071	890.751	
303.15	.1982	951.498	
303.15	.3069	1012.008	
303.15	.3985	1055.334	
303.15	.5048	1098.404	
303.15	.603	1132.646	
303.15	.7158	1166.673	
303.15	.7951	1187.776	
303.15	.9185	1216.563	
303.15	1	1232.932	
308.15	0	798.536	
308.15	.1071	887.005	
308.15	.1982	947.88	
308.15	.3069	1008.144	
308.15	.3985	1051.756	
308.15	.5048	1094.941	
308.15	.603	1129.229	
308.15	.7158	1163.388	
308.15	.7951	1184.456	
308.15	.9185	1213.192	
308.15	1	1229.568	
313.15	0	794.617	
313.15	.1071	883.165	
313.15	.1982	944.157	
313.15	.3069	1004.855	
313.15	.3985	1048.25	
313.15	.5048	1091.492	
313.15	.603	1125.389	
313.15	.7158	1160.049	
313.15	.7951	1181.127	
313.15	.9185	1209.91	
313.15	1	1226.212	
318.15	0	790.655	
318.15	.1071	879.331	
318.15	.1982	940.543	
318.15	.3069	1001.311	
318.15	.3985	1044.72	
318.15	.5048	1088.01	
318.15	.603	1122.448	
318.15	.7158	1156.707	
318.15	.7951	1177.809	
318.15	.9185	1206.649	
318.15	1	1222.868	
323.15	0	786.645	
323.15	.1071	875.482	
323.15	.1982	936.794	
323.15	.3069	997.633	
323.15	.3985	1041.065	
323.15	.5048	1084.474	
323.15	.603	1118.96	
323.15	.7158	1153.242	
323.15	.7951	1174.374	
323.15	.9185	1203.18	
323.15	1	1219.54	

System: 1-butanol + 1-ethyl-3-methylimidazolium ethyl sulfate; phases: Liquid
Fixed: Pressure, kPa = 100
Fixed: Frequency, MHz = 3
Property: Speed of sound, m/s (Liquid); method: Sing-around technique in a fixed-path interferometer
Temperature, K	Mole fraction of 1-ethyl-3-methylimidazolium ethyl sulfate	Speed of sound, m/s	uncertainty
298.15	0	1241.13	
298.15	.1071	1289.07	
298.15	.1982	1334.37	
298.15	.3069	1385.57	
298.15	.3985	1430.23	
298.15	.5048	1480.41	
298.15	.603	1523.56	
298.15	.7158	1571.69	
298.15	.7951	1603.65	
298.15	.9185	1649.71	
298.15	1	1682.32	
303.15	0	1224.3	
303.15	.1071	1273.7	
303.15	.1982	1319.91	
303.15	.3069	1372	
303.15	.3985	1416.97	
303.15	.5048	1467.34	
303.15	.603	1510.85	
303.15	.7158	1559.13	
303.15	.7951	1591.16	
303.15	.9185	1637.34	
303.15	1	1670.04	
308.15	0	1207.54	
308.15	.1071	1258.42	
308.15	.1982	1305.4	
308.15	.3069	1358.15	
308.15	.3985	1403.82	
308.15	.5048	1454.74	
308.15	.603	1498.39	
308.15	.7158	1546.83	
308.15	.7951	1578.92	
308.15	.9185	1625.16	
308.15	1	1657.92	
313.15	0	1190.87	
313.15	.1071	1243.21	
313.15	.1982	1290.74	
313.15	.3069	1344.12	
313.15	.3985	1390.42	
313.15	.5048	1441.76	
313.15	.603	1485.77	
313.15	.7158	1534.48	
313.15	.7951	1566.72	
313.15	.9185	1613.1	
313.15	1	1645.92	
318.15	0	1174.24	
318.15	.1071	1228.04	
318.15	.1982	1276.51	
318.15	.3069	1330.51	
318.15	.3985	1377.64	
318.15	.5048	1429.83	
318.15	.603	1473.71	
318.15	.7158	1522.58	
318.15	.7951	1554.85	
318.15	.9185	1601.22	
318.15	1	1634.07	
323.15	0	1157.6	
323.15	.1071	1212.95	
323.15	.1982	1262.25	
323.15	.3069	1317	
323.15	.3985	1364.75	
323.15	.5048	1417.42	
323.15	.603	1461.52	
323.15	.7158	1510.59	
323.15	.7951	1542.95	
323.15	.9185	1589.42	
323.15	1	1622.34	

System: 1-butanol + 1-ethyl-3-methylimidazolium ethyl sulfate; phases: Liquid
Fixed: Pressure, kPa = 100
Property: Viscosity, Pa*s (Liquid); method: Falling or rolling sphere viscometry
Temperature, K	Mole fraction of 1-ethyl-3-methylimidazolium ethyl sulfate	Viscosity, Pa*s	uncertainty
298.15	0	.00261	
298.15	.1071	.00424	
298.15	.1982	.0078	
298.15	.3069	.01083	
298.15	.3985	.01409	
298.15	.5048	.01944	
298.15	.603	.02662	
298.15	.7158	.0384	
298.15	.7951	.04951	
298.15	.9185	.07234	
298.15	1	.09621	
303.15	0	.00231	
303.15	.1071	.00375	
303.15	.1982	.00651	
303.15	.3069	.00915	
303.15	.3985	.01198	
303.15	.5048	.01651	
303.15	.603	.02237	
303.15	.7158	.03174	
303.15	.7951	.04039	
303.15	.9185	.05789	
303.15	1	.07589	
308.15	0	.00207	
308.15	.1071	.00334	
308.15	.1982	.00554	
308.15	.3069	.00792	
308.15	.3985	.01046	
308.15	.5048	.0144	
308.15	.603	.01931	
308.15	.7158	.02688	
308.15	.7951	.0337	
308.15	.9185	.0472	
308.15	1	.06073	
313.15	0	.00185	
313.15	.1071	.00299	
313.15	.1982	.00482	
313.15	.3069	.00695	
313.15	.3985	.00921	
313.15	.5048	.01262	
313.15	.603	.01674	
313.15	.7158	.02292	
313.15	.7951	.02836	
313.15	.9185	.03893	
313.15	1	.04938	
318.15	0	.00166	
318.15	.1071	.00269	
318.15	.1982	.00425	
318.15	.3069	.00616	
318.15	.3985	.00816	
318.15	.5048	.01112	
318.15	.603	.01462	
318.15	.7158	.01975	
318.15	.7951	.02419	
318.15	.9185	.03266	
318.15	1	.04093	
323.15	0	.0015	
323.15	.1071	.00243	
323.15	.1982	.00369	
323.15	.3069	.00543	
323.15	.3985	.00728	
323.15	.5048	.00993	
323.15	.603	.01297	
323.15	.7158	.01727	
323.15	.7951	.02087	
323.15	.9185	.02756	
323.15	1	.03382	

System: methanol + 1-ethyl-3-methylimidazolium ethyl sulfate; phases: Liquid
Fixed: Pressure, kPa = 100
Property: Mass density, kg/m3 (Liquid); method: Vibrating tube method
Temperature, K	Mole fraction of 1-ethyl-3-methylimidazolium ethyl sulfate	Mass density, kg/m3	uncertainty
298.15	0	786.884	
298.15	.1067	961.555	
298.15	.1996	1042.499	
298.15	.2919	1095.83	
298.15	.4021	1138.914	
298.15	.4918	1164.2	
298.15	.609	1188.993	
298.15	.7095	1204.688	
298.15	.8014	1216.591	
298.15	.904	1227.452	
298.15	1	1236.328	
303.15	0	782.158	
303.15	.1067	957.326	
303.15	.1996	1038.403	
303.15	.2919	1092.014	
303.15	.4021	1135.305	
303.15	.4918	1160.816	
303.15	.609	1185.524	
303.15	.7095	1201.305	
303.15	.8014	1213.108	
303.15	.904	1224.023	
303.15	1	1232.932	
308.15	0	777.414	
308.15	.1067	952.925	
308.15	.1996	1034.328	
308.15	.2919	1088.21	
308.15	.4021	1131.599	
308.15	.4918	1157.425	
308.15	.609	1182.079	
308.15	.7095	1198.002	
308.15	.8014	1209.703	
308.15	.904	1220.613	
308.15	1	1229.568	
313.15	0	772.64	
313.15	.1067	948.697	
313.15	.1996	1030.408	
313.15	.2919	1084.406	
313.15	.4021	1127.882	
313.15	.4918	1153.828	
313.15	.609	1178.563	
313.15	.7095	1194.755	
313.15	.8014	1206.291	
313.15	.904	1217.224	
313.15	1	1226.212	
318.15	0	767.844	
318.15	.1067	944.458	
318.15	.1996	1026.636	
318.15	.2919	1080.744	
318.15	.4021	1124.275	
318.15	.4918	1150.297	
318.15	.609	1175.058	
318.15	.7095	1191.485	
318.15	.8014	1202.898	
318.15	.904	1213.853	
318.15	1	1222.868	
323.15	0	763.028	
323.15	.1067	940.54	
323.15	.1996	1022.723	
323.15	.2919	1077.086	
323.15	.4021	1120.775	
323.15	.4918	1146.919	
323.15	.609	1171.654	
323.15	.7095	1188.286	
323.15	.8014	1199.505	
323.15	.904	1210.501	
323.15	1	1219.54	

System: methanol + 1-ethyl-3-methylimidazolium ethyl sulfate; phases: Liquid
Fixed: Pressure, kPa = 100
Fixed: Frequency, MHz = 3
Property: Speed of sound, m/s (Liquid); method: Sing-around technique in a fixed-path interferometer
Temperature, K	Mole fraction of 1-ethyl-3-methylimidazolium ethyl sulfate	Speed of sound, m/s	uncertainty
293.15	0	1103.34	
293.15	.1067	1292.54	
293.15	.1996	1399.11	
293.15	.2919	1473.09	
293.15	.4021	1533.81	
293.15	.4918	1569.61	
293.15	.609	1606.42	
293.15	.7095	1632.76	
293.15	.8014	1652.87	
293.15	.904	1667.94	
293.15	1	1682.32	
303.15	0	1086.89	
303.15	.1067	1278.12	
303.15	.1996	1386.28	
303.15	.2919	1459.81	
303.15	.4021	1522.59	
303.15	.4918	1556.91	
303.15	.609	1592.11	
303.15	.7095	1620.38	
303.15	.8014	1639.13	
303.15	.904	1655.68	
303.15	1	1670.04	
308.15	0	1070.63	
308.15	.1067	1263.79	
308.15	.1996	1372.67	
308.15	.2919	1446.54	
308.15	.4021	1509.8	
308.15	.4918	1544.37	
308.15	.609	1579.67	
308.15	.7095	1608.13	
308.15	.8014	1626.99	
308.15	.904	1643.56	
308.15	1	1657.92	
313.15	0	1054.47	
313.15	.1067	1249.56	
313.15	.1996	1359.26	
313.15	.2919	1433.54	
313.15	.4021	1497.1	
313.15	.4918	1531.76	
313.15	.609	1567.26	
313.15	.7095	1596.01	
313.15	.8014	1614.97	
313.15	.904	1631.56	
313.15	1	1645.92	
318.15	0	1038.52	
318.15	.1067	1235.41	
318.15	.1996	1345.85	
318.15	.2919	1420.52	
318.15	.4021	1484.48	
318.15	.4918	1519.31	
318.15	.609	1555	
318.15	.7095	1584.01	
318.15	.8014	1603.07	
318.15	.904	1619.67	
318.15	1	1634.07	
323.15	0	1022.52	
323.15	.1067	1221.36	
323.15	.1996	1332.28	
323.15	.2919	1407.6	
323.15	.4021	1471.87	
323.15	.4918	1506.81	
323.15	.609	1542.75	
323.15	.7095	1572.14	
323.15	.8014	1591.28	
323.15	.904	1607.86	
323.15	1	1622.34	

System: methanol + 1-ethyl-3-methylimidazolium ethyl sulfate; phases: Liquid
Fixed: Pressure, kPa = 100
Property: Viscosity, Pa*s (Liquid); method: Falling or rolling sphere viscometry
Temperature, K	Mole fraction of 1-ethyl-3-methylimidazolium ethyl sulfate	Viscosity, Pa*s	uncertainty
298.15	0	.00055	
298.15	.1067	.00145	
298.15	.1996	.00384	
298.15	.2919	.00457	
298.15	.4021	.00783	
298.15	.4918	.01299	
298.15	.609	.01997	
298.15	.7095	.03161	
298.15	.8014	.04592	
298.15	.904	.06582	
298.15	1	.09621	
303.15	0	.00051	
303.15	.1067	.00135	
303.15	.1996	.00329	
303.15	.2919	.00415	
303.15	.4021	.00709	
303.15	.4918	.01138	
303.15	.609	.01726	
303.15	.7095	.02648	
303.15	.8014	.03765	
303.15	.904	.05303	
303.15	1	.07589	
308.15	0	.00048	
308.15	.1067	.00126	
308.15	.1996	.0028	
308.15	.2919	.00378	
308.15	.4021	.00642	
308.15	.4918	.01002	
308.15	.609	.01514	
308.15	.7095	.02248	
308.15	.8014	.03144	
308.15	.904	.04371	
308.15	1	.06073	
313.15	0	.00045	
313.15	.1067	.00117	
313.15	.1996	.00247	
313.15	.2919	.00348	
313.15	.4021	.00585	
313.15	.4918	.00891	
313.15	.609	.01332	
313.15	.7095	.01931	
313.15	.8014	.02651	
313.15	.904	.03628	
313.15	1	.04938	
318.15	0	.00043	
318.15	.1067	.00109	
318.15	.1996	.00223	
318.15	.2919	.00321	
318.15	.4021	.00534	
318.15	.4918	.00796	
318.15	.609	.01178	
318.15	.7095	.01679	
318.15	.8014	.02262	
318.15	.904	.03046	
318.15	1	.04093	
323.15	0	.00041	
323.15	.1067	.00102	
323.15	.1996	.00195	
323.15	.2919	.00296	
323.15	.4021	.00485	
323.15	.4918	.00708	
323.15	.609	.01054	
323.15	.7095	.01468	
323.15	.8014	.0195	
323.15	.904	.02598	
323.15	1	.03382	

System: methanol + 1-butanol; phases: Liquid
Fixed: Pressure, kPa = 100
Property: Mass density, kg/m3 (Liquid); method: Vibrating tube method
Temperature, K	Mole fraction of 1-butanol	Mass density, kg/m3	uncertainty
298.15	0	786.884	
298.15	.0997	791.339	
298.15	.1994	794.665	
298.15	.3068	797.503	
298.15	.3991	799.477	
298.15	.5082	801.494	
298.15	.604	802.958	
298.15	.6992	804.13	
298.15	.7994	805.057	
298.15	.9038	805.689	
298.15	1	806.27	
303.15	0	782.158	
303.15	.0997	786.81	
303.15	.1994	790.266	
303.15	.3068	793.243	
303.15	.3991	795.305	
303.15	.5082	797.42	
303.15	.604	798.956	
303.15	.6992	800.184	
303.15	.7994	801.155	
303.15	.9038	801.817	
303.15	1	802.42	
308.15	0	777.414	
308.15	.0997	782.263	
308.15	.1994	785.837	
308.15	.3068	788.95	
308.15	.3991	791.101	
308.15	.5082	793.315	
308.15	.604	794.922	
308.15	.6992	796.169	
308.15	.7994	797.222	
308.15	.9038	797.914	
308.15	1	798.536	
313.15	0	772.64	
313.15	.0997	777.683	
313.15	.1994	781.397	
313.15	.3068	784.606	
313.15	.3991	786.863	
313.15	.5082	789.167	
313.15	.604	790.889	
313.15	.6992	792.224	
313.15	.7994	793.273	
313.15	.9038	793.979	
313.15	1	794.617	
318.15	0	767.844	
318.15	.0997	773.076	
318.15	.1994	776.932	
318.15	.3068	780.263	
318.15	.3991	782.592	
318.15	.5082	784.996	
318.15	.604	786.847	
318.15	.6992	788.248	
318.15	.7994	789.325	
318.15	.9038	789.993	
318.15	1	790.655	
323.15	0	763.028	
323.15	.0997	768.447	
323.15	.1994	772.448	
323.15	.3068	775.921	
323.15	.3991	778.306	
323.15	.5082	780.936	
323.15	.604	782.762	
323.15	.6992	784.201	
323.15	.7994	785.373	
323.15	.9038	785.98	
323.15	1	786.645	

System: methanol + 1-butanol; phases: Liquid
Fixed: Pressure, kPa = 100
Fixed: Frequency, MHz = 3
Property: Speed of sound, m/s (Liquid); method: Sing-around technique in a fixed-path interferometer
Temperature, K	Mole fraction of 1-butanol	Speed of sound, m/s	uncertainty
298.15	0	1103.34	
298.15	.0997	1130.58	
298.15	.1994	1149.99	
298.15	.3068	1169.23	
298.15	.3991	1183.46	
298.15	.5082	1196.97	
298.15	.604	1210.29	
298.15	.6992	1218.04	
298.15	.7994	1228.8	
298.15	.9038	1235.85	
298.15	1	1241.13	
303.15	0	1086.89	
303.15	.0997	1114.2	
303.15	.1994	1133.58	
303.15	.3068	1152.44	
303.15	.3991	1166.7	
303.15	.5082	1180.42	
303.15	.604	1193.7	
303.15	.6992	1201.36	
303.15	.7994	1212.09	
303.15	.9038	1219.07	
303.15	1	1224.3	
308.15	0	1070.63	
308.15	.0997	1097.94	
308.15	.1994	1117.27	
308.15	.3068	1136.4	
308.15	.3991	1150.56	
308.15	.5082	1163.94	
308.15	.604	1177.18	
308.15	.6992	1184.78	
308.15	.7994	1195.45	
308.15	.9038	1202.36	
308.15	1	1207.54	
313.15	0	1054.47	
313.15	.0997	1081.77	
313.15	.1994	1101.05	
313.15	.3068	1119.8	
313.15	.3991	1134.24	
313.15	.5082	1147.55	
313.15	.604	1160.74	
313.15	.6992	1168.28	
313.15	.7994	1178.89	
313.15	.9038	1185.74	
313.15	1	1190.87	
318.15	0	1038.52	
318.15	.0997	1065.72	
318.15	.1994	1084.94	
318.15	.3068	1103.61	
318.15	.3991	1117.99	
318.15	.5082	1131.25	
318.15	.604	1144.36	
318.15	.6992	1151.85	
318.15	.7994	1162.39	
318.15	.9038	1169.18	
318.15	1	1174.24	
323.15	0	1022.52	
323.15	.0997	1049.71	
323.15	.1994	1068.86	
323.15	.3068	1087.47	
323.15	.3991	1101.79	
323.15	.5082	1115	
323.15	.604	1128.01	
323.15	.6992	1135.42	
323.15	.7994	1145.89	
323.15	.9038	1152.6	
323.15	1	1157.6	

System: methanol + 1-butanol; phases: Liquid
Fixed: Pressure, kPa = 100
Property: Viscosity, Pa*s (Liquid); method: Falling or rolling sphere viscometry
Temperature, K	Mole fraction of 1-butanol	Viscosity, Pa*s	uncertainty
293.15	0	.00055	
293.15	.0997	.0007	
293.15	.1994	.00083	
293.15	.3068	.00099	
293.15	.3991	.00115	
293.15	.5082	.00136	
293.15	.604	.00157	
293.15	.6992	.00177	
293.15	.7994	.00205	
293.15	.9038	.00234	
293.15	1	.00261	
303.15	0	.00051	
303.15	.0997	.00065	
303.15	.1994	.00076	
303.15	.3068	.00091	
303.15	.3991	.00105	
303.15	.5082	.00123	
303.15	.604	.00141	
303.15	.6992	.00159	
303.15	.7994	.00183	
303.15	.9038	.00208	
303.15	1	.00231	
308.15	0	.00048	
308.15	.0997	.0006	
308.15	.1994	.00071	
308.15	.3068	.00084	
308.15	.3991	.00096	
308.15	.5082	.00112	
308.15	.604	.00128	
308.15	.6992	.00143	
308.15	.7994	.00164	
308.15	.9038	.00186	
308.15	1	.00207	
313.15	0	.00045	
313.15	.0997	.00056	
313.15	.1994	.00066	
313.15	.3068	.00077	
313.15	.3991	.00088	
313.15	.5082	.00102	
313.15	.604	.00118	
313.15	.6992	.00129	
313.15	.7994	.00147	
313.15	.9038	.00166	
313.15	1	.00185	
318.15	0	.00043	
318.15	.0997	.00053	
318.15	.1994	.00061	
318.15	.3068	.00071	
318.15	.3991	.00081	
318.15	.5082	.00093	
318.15	.604	.00105	
318.15	.6992	.00117	
318.15	.7994	.00133	
318.15	.9038	.00149	
318.15	1	.00166	
323.15	0	.00041	
323.15	.0997	.00051	
323.15	.1994	.00058	
323.15	.3068	.00066	
323.15	.3991	.00075	
323.15	.5082	.00086	
323.15	.604	.00096	
323.15	.6992	.00106	
323.15	.7994	.0012	
323.15	.9038	.00135	
323.15	1	.0015	

System: 1-ethyl-3-methylimidazolium ethyl sulfate + 1-butanol + methanol; phases: Liquid
Fixed: Pressure, kPa = 100
Property: Mass density, kg/m3 (Liquid); method: Vibrating tube method
Temperature, K	Mole fraction of 1-ethyl-3-methylimidazolium ethyl sulfate	Mole fraction of 1-butanol	Mass density, kg/m3	uncertainty
298.15	.0333	.8882	844	
298.15	.0635	.8446	866.2	
298.15	.1006	.7915	893.3	
298.15	.1352	.7522	917.8	
298.15	.1669	.7148	939.8	
298.15	.2046	.6716	965.5	
298.15	.2322	.6398	983.3	
298.15	.2685	.5982	1006.4	
298.15	.299	.5616	1025	
298.15	.3313	.5243	1043.8	
298.15	.3696	.4801	1065.1	
298.15	.405	.4363	1083.5	
298.15	.4377	.3968	1099.5	
298.15	.4669	.3611	1113.1	
298.15	.4972	.3239	1126.1	
298.15	.5338	.2953	1140.9	
298.15	.5705	.2607	1154.4	
298.15	.6055	.2352	1165.9	
298.15	.6346	.2133	1175	
298.15	.6705	.1809	1184.7	
298.15	.7042	.1586	1192.7	
298.15	.7364	.1311	1199.4	
298.15	.7641	.1127	1204.6	
298.15	.7992	.0829	1210.3	
298.15	.8294	.0625	1214.5	
298.15	.8631	.0433	1218.4	
298.15	.8983	.0232	1221.7	
298.15	.9142	.0195	1223	
298.15	.9448	.0099	1225.1	
303.15	.0333	.8882	840.1	
303.15	.0635	.8446	862.4	
303.15	.1006	.7915	889.6	
303.15	.1352	.7522	914	
303.15	.1669	.7148	936.1	
303.15	.2046	.6716	961.7	
303.15	.2322	.6398	979.7	
303.15	.2685	.5982	1002.7	
303.15	.299	.5616	1021.2	
303.15	.3313	.5243	1040.2	
303.15	.3696	.4801	1061.5	
303.15	.405	.4363	1079.9	
303.15	.4377	.3968	1096	
303.15	.4669	.3611	1109.5	
303.15	.4972	.3239	1122.7	
303.15	.5338	.2953	1137.4	
303.15	.5705	.2607	1151	
303.15	.6055	.2352	1162.6	
303.15	.6346	.2133	1171.5	
303.15	.6705	.1809	1181.3	
303.15	.7042	.1586	1189.3	
303.15	.7364	.1311	1196.1	
303.15	.7641	.1127	1201.3	
303.15	.7992	.0829	1206.9	
303.15	.8294	.0625	1211.1	
303.15	.8631	.0433	1215	
303.15	.8983	.0232	1218.4	
303.15	.9142	.0195	1219.6	
303.15	.9448	.0099	1221.8	
308.15	.0333	.8882	836.2	
308.15	.0635	.8446	858.5	
308.15	.1006	.7915	885.7	
308.15	.1352	.7522	910.4	
308.15	.1669	.7148	932.4	
308.15	.2046	.6716	958	
308.15	.2322	.6398	976	
308.15	.2685	.5982	999.1	
308.15	.299	.5616	1017.6	
308.15	.3313	.5243	1036.6	
308.15	.3696	.4801	1057.9	
308.15	.405	.4363	1076.4	
308.15	.4377	.3968	1092.4	
308.15	.4669	.3611	1105.9	
308.15	.4972	.3239	1119	
308.15	.5338	.2953	1133.9	
308.15	.5705	.2607	1147.4	
308.15	.6055	.2352	1159	
308.15	.6346	.2133	1168	
308.15	.6705	.1809	1177.7	
308.15	.7042	.1586	1185.9	
308.15	.7364	.1311	1192.8	
308.15	.7641	.1127	1197.9	
308.15	.7992	.0829	1203.6	
308.15	.8294	.0625	1207.8	
308.15	.8631	.0433	1211.7	
308.15	.8983	.0232	1215	
308.15	.9142	.0195	1216.2	
308.15	.9448	.0099	1218.5	
313.15	.0333	.8882	832.3	
313.15	.0635	.8446	854.7	
313.15	.1006	.7915	881.9	
313.15	.1352	.7522	906.6	
313.15	.1669	.7148	928.7	
313.15	.2046	.6716	954.4	
313.15	.2322	.6398	972.4	
313.15	.2685	.5982	995.5	
313.15	.299	.5616	1013.9	
313.15	.3313	.5243	1033	
313.15	.3696	.4801	1054.3	
313.15	.405	.4363	1072.8	
313.15	.4377	.3968	1088.9	
313.15	.4669	.3611	1102.3	
313.15	.4972	.3239	1115.5	
313.15	.5338	.2953	1130.3	
313.15	.5705	.2607	1143.7	
313.15	.6055	.2352	1155.4	
313.15	.6346	.2133	1164.4	
313.15	.6705	.1809	1174.2	
313.15	.7042	.1586	1182.3	
313.15	.7364	.1311	1189.4	
313.15	.7641	.1127	1194.5	
313.15	.7992	.0829	1200.3	
313.15	.8294	.0625	1204.4	
313.15	.8631	.0433	1208.5	
313.15	.8983	.0232	1211.7	
313.15	.9142	.0195	1212.9	
313.15	.9448	.0099	1215.1	
318.15	.0333	.8882	828.2	
318.15	.0635	.8446	850.8	
318.15	.1006	.7915	878.1	
318.15	.1352	.7522	902.8	
318.15	.1669	.7148	925	
318.15	.2046	.6716	950.7	
318.15	.2322	.6398	968.7	
318.15	.2685	.5982	991.8	
318.15	.299	.5616	1010.2	
318.15	.3313	.5243	1029.4	
318.15	.3696	.4801	1050.7	
318.15	.405	.4363	1069.1	
318.15	.4377	.3968	1085.2	
318.15	.4669	.3611	1098.7	
318.15	.4972	.3239	1111.9	
318.15	.5338	.2953	1126.8	
318.15	.5705	.2607	1140.1	
318.15	.6055	.2352	1151.7	
318.15	.6346	.2133	1160.8	
318.15	.6705	.1809	1170.7	
318.15	.7042	.1586	1178.9	
318.15	.7364	.1311	1186.1	
318.15	.7641	.1127	1191.1	
318.15	.7992	.0829	1197	
318.15	.8294	.0625	1201.1	
318.15	.8631	.0433	1205.2	
318.15	.8983	.0232	1208.3	
318.15	.9142	.0195	1209.6	
318.15	.9448	.0099	1211.9	
323.15	.0333	.8882	824.2	
323.15	.0635	.8446	846.8	
323.15	.1006	.7915	874.2	
323.15	.1352	.7522	899.1	
323.15	.1669	.7148	921.2	
323.15	.2046	.6716	947	
323.15	.2322	.6398	964.9	
323.15	.2685	.5982	988.1	
323.15	.299	.5616	1006.5	
323.15	.3313	.5243	1025.8	
323.15	.3696	.4801	1047.1	
323.15	.405	.4363	1065.5	
323.15	.4377	.3968	1081.6	
323.15	.4669	.3611	1095.1	
323.15	.4972	.3239	1108.3	
323.15	.5338	.2953	1123.3	
323.15	.5705	.2607	1136.7	
323.15	.6055	.2352	1148.1	
323.15	.6346	.2133	1157.3	
323.15	.6705	.1809	1167.1	
323.15	.7042	.1586	1175.4	
323.15	.7364	.1311	1182.7	
323.15	.7641	.1127	1187.7	
323.15	.7992	.0829	1193.8	
323.15	.8294	.0625	1197.7	
323.15	.8631	.0433	1201.9	
323.15	.8983	.0232	1205	
323.15	.9142	.0195	1206.3	
323.15	.9448	.0099	1208.6	

System: 1-ethyl-3-methylimidazolium ethyl sulfate + 1-butanol + methanol; phases: Liquid
Fixed: Pressure, kPa = 100
Fixed: Frequency, MHz = 3
Property: Speed of sound, m/s (Liquid); method: Sing-around technique in a fixed-path interferometer
Temperature, K	Mole fraction of 1-ethyl-3-methylimidazolium ethyl sulfate	Mole fraction of 1-butanol	Speed of sound, m/s	uncertainty
298.15	.0333	.8882	1255	
298.15	.0635	.8446	1270	
298.15	.1006	.7915	1287	
298.15	.1352	.7522	1304	
298.15	.1669	.7148	1324	
298.15	.2046	.6716	1345	
298.15	.2322	.6398	1360	
298.15	.2685	.5982	1384	
298.15	.299	.5616	1402	
298.15	.3313	.5243	1421	
298.15	.3696	.4801	1446	
298.15	.405	.4363	1467	
298.15	.4377	.3968	1487	
298.15	.4669	.3611	1504	
298.15	.4972	.3239	1520	
298.15	.5338	.2953	1539	
298.15	.5705	.2607	1560	
298.15	.6055	.2352	1575	
298.15	.6346	.2133	1588	
298.15	.6705	.1809	1605	
298.15	.7042	.1586	1616	
298.15	.7364	.1311	1626	
298.15	.7641	.1127	1635	
298.15	.7992	.0829	1645	
298.15	.8294	.0625	1651	
298.15	.8631	.0433	1659	
298.15	.8983	.0232	1663	
298.15	.9142	.0195	1665	
298.15	.9448	.0099	1667	
303.15	.0333	.8882	1239	
303.15	.0635	.8446	1255	
303.15	.1006	.7915	1272	
303.15	.1352	.7522	1290	
303.15	.1669	.7148	1310	
303.15	.2046	.6716	1331	
303.15	.2322	.6398	1346	
303.15	.2685	.5982	1370	
303.15	.299	.5616	1388	
303.15	.3313	.5243	1408	
303.15	.3696	.4801	1433	
303.15	.405	.4363	1453	
303.15	.4377	.3968	1472	
303.15	.4669	.3611	1491	
303.15	.4972	.3239	1507	
303.15	.5338	.2953	1526	
303.15	.5705	.2607	1547	
303.15	.6055	.2352	1563	
303.15	.6346	.2133	1575	
303.15	.6705	.1809	1592	
303.15	.7042	.1586	1604	
303.15	.7364	.1311	1614	
303.15	.7641	.1127	1624	
303.15	.7992	.0829	1633	
303.15	.8294	.0625	1639	
303.15	.8631	.0433	1647	
303.15	.8983	.0232	1651	
303.15	.9142	.0195	1652	
303.15	.9448	.0099	1654	
308.15	.0333	.8882	1222	
308.15	.0635	.8446	1239	
308.15	.1006	.7915	1257	
308.15	.1352	.7522	1275	
308.15	.1669	.7148	1295	
308.15	.2046	.6716	1316	
308.15	.2322	.6398	1332	
308.15	.2685	.5982	1356	
308.15	.299	.5616	1374	
308.15	.3313	.5243	1394	
308.15	.3696	.4801	1419	
308.15	.405	.4363	1440	
308.15	.4377	.3968	1459	
308.15	.4669	.3611	1478	
308.15	.4972	.3239	1494	
308.15	.5338	.2953	1513	
308.15	.5705	.2607	1534	
308.15	.6055	.2352	1550	
308.15	.6346	.2133	1562	
308.15	.6705	.1809	1580	
308.15	.7042	.1586	1591	
308.15	.7364	.1311	1602	
308.15	.7641	.1127	1612	
308.15	.7992	.0829	1621	
308.15	.8294	.0625	1628	
308.15	.8631	.0433	1635	
308.15	.8983	.0232	1638	
308.15	.9142	.0195	1640	
308.15	.9448	.0099	1642	
313.15	.0333	.8882	1206	
313.15	.0635	.8446	1223	
313.15	.1006	.7915	1242	
313.15	.1352	.7522	1260	
313.15	.1669	.7148	1280	
313.15	.2046	.6716	1302	
313.15	.2322	.6398	1318	
313.15	.2685	.5982	1343	
313.15	.299	.5616	1361	
313.15	.3313	.5243	1380	
313.15	.3696	.4801	1406	
313.15	.405	.4363	1427	
313.15	.4377	.3968	1446	
313.15	.4669	.3611	1465	
313.15	.4972	.3239	1481	
313.15	.5338	.2953	1500	
313.15	.5705	.2607	1522	
313.15	.6055	.2352	1538	
313.15	.6346	.2133	1550	
313.15	.6705	.1809	1567	
313.15	.7042	.1586	1579	
313.15	.7364	.1311	1590	
313.15	.7641	.1127	1600	
313.15	.7992	.0829	1609	
313.15	.8294	.0625	1616	
313.15	.8631	.0433	1622	
313.15	.8983	.0232	1626	
313.15	.9142	.0195	1628	
313.15	.9448	.0099	1629	
318.15	.0333	.8882	1191	
318.15	.0635	.8446	1208	
318.15	.1006	.7915	1227	
318.15	.1352	.7522	1245	
318.15	.1669	.7148	1266	
318.15	.2046	.6716	1288	
318.15	.2322	.6398	1304	
318.15	.2685	.5982	1329	
318.15	.299	.5616	1347	
318.15	.3313	.5243	1367	
318.15	.3696	.4801	1393	
318.15	.405	.4363	1414	
318.15	.4377	.3968	1433	
318.15	.4669	.3611	1452	
318.15	.4972	.3239	1469	
318.15	.5338	.2953	1488	
318.15	.5705	.2607	1509	
318.15	.6055	.2352	1525	
318.15	.6346	.2133	1538	
318.15	.6705	.1809	1555	
318.15	.7042	.1586	1567	
318.15	.7364	.1311	1578	
318.15	.7641	.1127	1588	
318.15	.7992	.0829	1597	
318.15	.8294	.0625	1604	
318.15	.8631	.0433	1610	
318.15	.8983	.0232	1614	
318.15	.9142	.0195	1616	
318.15	.9448	.0099	1617	
323.15	.0333	.8882	1175	
323.15	.0635	.8446	1192	
323.15	.1006	.7915	1212	
323.15	.1352	.7522	1231	
323.15	.1669	.7148	1252	
323.15	.2046	.6716	1274	
323.15	.2322	.6398	1290	
323.15	.2685	.5982	1316	
323.15	.299	.5616	1334	
323.15	.3313	.5243	1354	
323.15	.3696	.4801	1380	
323.15	.405	.4363	1401	
323.15	.4377	.3968	1420	
323.15	.4669	.3611	1440	
323.15	.4972	.3239	1456	
323.15	.5338	.2953	1476	
323.15	.5705	.2607	1497	
323.15	.6055	.2352	1514	
323.15	.6346	.2133	1526	
323.15	.6705	.1809	1544	
323.15	.7042	.1586	1556	
323.15	.7364	.1311	1568	
323.15	.7641	.1127	1577	
323.15	.7992	.0829	1585	
323.15	.8294	.0625	1593	
323.15	.8631	.0433	1599	
323.15	.8983	.0232	1602	
323.15	.9142	.0195	1604	
323.15	.9448	.0099	1605	

System: 1-ethyl-3-methylimidazolium ethyl sulfate + 1-butanol + methanol; phases: Liquid
Fixed: Pressure, kPa = 100
Property: Viscosity, Pa*s (Liquid); method: Falling or rolling sphere viscometry
Temperature, K	Mole fraction of 1-ethyl-3-methylimidazolium ethyl sulfate	Mole fraction of 1-butanol	Viscosity, Pa*s	uncertainty
298.15	.0333	.8882	.00148	
298.15	.0635	.8446	.00269	
298.15	.1006	.7915	.0037	
298.15	.1352	.7522	.00461	
298.15	.1669	.7148	.00524	
298.15	.2046	.6716	.00611	
298.15	.2322	.6398	.00672	
298.15	.2685	.5982	.00733	
298.15	.299	.5616	.00822	
298.15	.3313	.5243	.00917	
298.15	.3696	.4801	.01029	
298.15	.405	.4363	.01144	
298.15	.4377	.3968	.01235	
298.15	.4669	.3611	.01437	
298.15	.4972	.3239	.01549	
298.15	.5338	.2953	.01803	
298.15	.5705	.2607	.0205	
298.15	.6055	.2352	.02455	
298.15	.6346	.2133	.02579	
298.15	.6705	.1809	.02989	
298.15	.7042	.1586	.03362	
298.15	.7364	.1311	.03892	
298.15	.7641	.1127	.04366	
298.15	.7992	.0829	.04918	
298.15	.8294	.0625	.05393	
298.15	.8631	.0433	.06322	
298.15	.8983	.0232	.07184	
298.15	.9142	.0195	.07646	
298.15	.9448	.0099	.08459	
303.15	.0333	.8882	.00151	
303.15	.0635	.8446	.00247	
303.15	.1006	.7915	.0033	
303.15	.1352	.7522	.00404	
303.15	.1669	.7148	.00457	
303.15	.2046	.6716	.00527	
303.15	.2322	.6398	.00585	
303.15	.2685	.5982	.00639	
303.15	.299	.5616	.00724	
303.15	.3313	.5243	.00803	
303.15	.3696	.4801	.00902	
303.15	.405	.4363	.01005	
303.15	.4377	.3968	.01082	
303.15	.4669	.3611	.01254	
303.15	.4972	.3239	.0134	
303.15	.5338	.2953	.0156	
303.15	.5705	.2607	.01763	
303.15	.6055	.2352	.02094	
303.15	.6346	.2133	.02192	
303.15	.6705	.1809	.02518	
303.15	.7042	.1586	.02819	
303.15	.7364	.1311	.03227	
303.15	.7641	.1127	.03594	
303.15	.7992	.0829	.04012	
303.15	.8294	.0625	.04379	
303.15	.8631	.0433	.0508	
303.15	.8983	.0232	.05725	
303.15	.9142	.0195	.06066	
303.15	.9448	.0099	.06666	
308.15	.0333	.8882	.00144	
308.15	.0635	.8446	.00225	
308.15	.1006	.7915	.00295	
308.15	.1352	.7522	.00359	
308.15	.1669	.7148	.00404	
308.15	.2046	.6716	.00466	
308.15	.2322	.6398	.00518	
308.15	.2685	.5982	.00566	
308.15	.299	.5616	.00643	
308.15	.3313	.5243	.00712	
308.15	.3696	.4801	.00798	
308.15	.405	.4363	.00887	
308.15	.4377	.3968	.00953	
308.15	.4669	.3611	.011	
308.15	.4972	.3239	.01171	
308.15	.5338	.2953	.01357	
308.15	.5705	.2607	.01526	
308.15	.6055	.2352	.01799	
308.15	.6346	.2133	.01879	
308.15	.6705	.1809	.02145	
308.15	.7042	.1586	.02391	
308.15	.7364	.1311	.02718	
308.15	.7641	.1127	.03015	
308.15	.7992	.0829	.03349	
308.15	.8294	.0625	.03644	
308.15	.8631	.0433	.04201	
308.15	.8983	.0232	.04713	
308.15	.9142	.0195	.04982	
308.15	.9448	.0099	.05455	
313.15	.0333	.8882	.00136	
313.15	.0635	.8446	.00204	
313.15	.1006	.7915	.00265	
313.15	.1352	.7522	.0032	
313.15	.1669	.7148	.0036	
313.15	.2046	.6716	.00414	
313.15	.2322	.6398	.00461	
313.15	.2685	.5982	.00504	
313.15	.299	.5616	.00574	
313.15	.3313	.5243	.00634	
313.15	.3696	.4801	.0071	
313.15	.405	.4363	.00788	
313.15	.4377	.3968	.00845	
313.15	.4669	.3611	.00971	
313.15	.4972	.3239	.0103	
313.15	.5338	.2953	.01189	
313.15	.5705	.2607	.01331	
313.15	.6055	.2352	.01559	
313.15	.6346	.2133	.01624	
313.15	.6705	.1809	.01844	
313.15	.7042	.1586	.02047	
313.15	.7364	.1311	.02313	
313.15	.7641	.1127	.02552	
313.15	.7992	.0829	.0282	
313.15	.8294	.0625	.03058	
313.15	.8631	.0433	.03502	
313.15	.8983	.0232	.03908	
313.15	.9142	.0195	.0412	
313.15	.9448	.0099	.04492	
318.15	.0333	.8882	.00128	
318.15	.0635	.8446	.00186	
318.15	.1006	.7915	.00239	
318.15	.1352	.7522	.00287	
318.15	.1669	.7148	.00322	
318.15	.2046	.6716	.0037	
318.15	.2322	.6398	.00413	
318.15	.2685	.5982	.00452	
318.15	.299	.5616	.00515	
318.15	.3313	.5243	.00568	
318.15	.3696	.4801	.00636	
318.15	.405	.4363	.00705	
318.15	.4377	.3968	.00754	
318.15	.4669	.3611	.00864	
318.15	.4972	.3239	.00913	
318.15	.5338	.2953	.01051	
318.15	.5705	.2607	.01171	
318.15	.6055	.2352	.01363	
318.15	.6346	.2133	.01418	
318.15	.6705	.1809	.01601	
318.15	.7042	.1586	.0177	
318.15	.7364	.1311	.01987	
318.15	.7641	.1127	.02182	
318.15	.7992	.0829	.02398	
318.15	.8294	.0625	.02591	
318.15	.8631	.0433	.02948	
318.15	.8983	.0232	.03272	
318.15	.9142	.0195	.0344	
318.15	.9448	.0099	.03734	
323.15	.0333	.8882	.00119	
323.15	.0635	.8446	.00171	
323.15	.1006	.7915	.00217	
323.15	.1352	.7522	.00259	
323.15	.1669	.7148	.00291	
323.15	.2046	.6716	.00332	
323.15	.2322	.6398	.00372	
323.15	.2685	.5982	.00407	
323.15	.299	.5616	.00465	
323.15	.3313	.5243	.00511	
323.15	.3696	.4801	.00571	
323.15	.405	.4363	.00633	
323.15	.4377	.3968	.00676	
323.15	.4669	.3611	.00772	
323.15	.4972	.3239	.00813	
323.15	.5338	.2953	.00935	
323.15	.5705	.2607	.01039	
323.15	.6055	.2352	.01204	
323.15	.6346	.2133	.0125	
323.15	.6705	.1809	.01405	
323.15	.7042	.1586	.01549	
323.15	.7364	.1311	.01729	
323.15	.7641	.1127	.01891	
323.15	.7992	.0829	.02068	
323.15	.8294	.0625	.02228	
323.15	.8631	.0433	.0252	
323.15	.8983	.0232	.02782	
323.15	.9142	.0195	.02917	
323.15	.9448	.0099	.03152	
