Measured thermophysical data. Measurement and equation of state prediction of vapor-liquid equilibrium and physical properties for the system methane + n-octadecane
Source: Fluid Phase Equilib., 2011, 10.1016/j.fluid.2011.10.018
Compound 1: methane, CH4, purity 99.97%
Compound 2: octadecane, C18H38, purity 99%

System: octadecane; phases: Liquid
Property: Mass density, kg/m3 (Liquid); method: Vibrating tube method
Temperature, K	Pressure, kPa	Mass density, kg/m3	uncertainty
323.1	2080	763	1
323.1	3570	764	1
323.1	5060	765	1
323.1	6500	766	1
323	8090	766	1
323	9490	767	1
347.9	2090	745	1
347.9	3520	746	1
347.9	5050	747	1
347.9	6530	749	1
347.9	8050	750	1
347.9	9470	751	1
398.2	2030	713	1
397.2	3470	715	1
398.2	4970	716	1
398.2	6480	718	1
398.3	7940	719	1
398.2	9590	721	1
447.6	1920	681	1
447.7	3450	684	1
447.6	4900	686	1
447.6	6460	687	1
447.5	7920	690	1
447.5	9510	692	1

System: methane + octadecane; phases: Liquid, Gas
Property: Mass density, kg/m3 (Liquid); method: Vibrating tube method
Temperature, K	Mole fraction of methane	Mass density, kg/m3	uncertainty
323.1	.112	752	1
323.1	.173	747	1
323.1	.227	744	1
323.1	.276	739	1
323	.322	734	1
323	.358	730	1
347.9	.104	737	1
347.9	.158	733	1
347.9	.215	728	1
347.9	.264	724	1
347.9	.305	720	1
347.9	.341	716	1
398.2	.092	705	1
397.2	.143	702	1
398.2	.195	697	1
398.2	.247	693	1
398.3	.285	689	1
398.2	.33	684	1
447.6	.079	674	1
447.7	.137	670	1
447.6	.183	666	1
447.6	.234	661	1
447.5	.276	657	1
447.5	.318	653	1

System: methane + octadecane; phases: Liquid, Gas
Property: Viscosity, Pa*s (Liquid); method: Moving piston method
Temperature, K	Mole fraction of methane	Viscosity, Pa*s	uncertainty
323.1	.112	.00195	.0000975
323.1	.173	.00178	.000089
323.1	.227	.00164	.000082
323.1	.276	.00155	.0000775
323	.322	.00145	.0000725
323	.358	.00129	.0000645
347.9	.104	.00128	.000064
347.9	.158	.00122	.000061
347.9	.215	.00113	.0000565
347.9	.264	.00105	.0000525
347.9	.305	.00097	.0000485
347.9	.341	.00093	.0000465
398.2	.092	.00069	.0000345
397.2	.143	.00068	.000034
398.2	.195	.00064	.000032
398.2	.247	.0006	.00003
398.3	.285	.00059	.0000295
398.2	.33	.00055	.0000275
447.6	.079	.00045	.0000225
447.7	.137	.00042	.000021
447.6	.183	.0004	.00002
447.6	.234	.00038	.000019
447.5	.276	.00037	.0000185
447.5	.318	.00036	.000018

System: methane + octadecane; phases: Liquid, Gas
Property: Vapor or sublimation pressure, kPa (Liquid); method: Closed cell (Static) method
Temperature, K	Mole fraction of methane	Vapor or sublimation pressure, kPa	uncertainty
323.1	.112	2080	10
323.1	.173	3570	10
323.1	.227	5060	10
323.1	.276	6500	10
323	.322	8090	10
323	.358	9490	10
347.9	.104	2090	10
347.9	.158	3520	10
347.9	.215	5050	10
347.9	.264	6530	10
347.9	.305	8050	10
347.9	.341	9470	10
398.2	.092	2030	10
397.2	.143	3470	10
398.2	.195	4970	10
398.2	.247	6480	10
398.3	.285	7940	10
398.2	.33	9590	10
447.6	.079	1920	10
447.7	.137	3450	10
447.6	.183	4900	10
447.6	.234	6460	10
447.5	.276	7920	10
447.5	.318	9510	10
