Measured thermophysical data. Determination and correlation of solubility and solution thermodynamics of valnemulin hydrogen tartrate in different pure solvents
Source: Fluid Phase Equilib., 2014, 10.1016/j.fluid.2014.03.022
Compound 1: ethanol, C2H6O, purity 99.5%
Compound 2: 2-propanol, C3H8O, purity 99.5%
Compound 3: acetone, C3H6O, purity 99.5%
Compound 4: n-butanol, C4H10O, purity 99.5%
Compound 5: water, H2O, purity 99.9%
Compound 6: valnemulin hydrogen tartrate, C31H52N2O5S, purity 98%

System: valnemulin hydrogen tartrate; phases: Crystal, Liquid, Air at 1 atmosphere
Property: Normal melting temperature, K (Crystal); method: DSC/DTA
Normal melting temperature, K	uncertainty
450.15	.05

System: valnemulin hydrogen tartrate; phases: Crystal, Liquid, Air at 1 atmosphere
Property: Molar enthalpy of transition or fusion, kJ/mol (Crystal); method: DSC/DTA
Molar enthalpy of transition or fusion, kJ/mol	uncertainty
31.27	.6254

System: water + valnemulin hydrogen tartrate; phases: Liquid, Crystal
Fixed: Pressure, kPa = 101
Property: Mole fraction of valnemulin hydrogen tartrate (Liquid); method: gravimetric
Temperature, K	Mole fraction of valnemulin hydrogen tartrate	uncertainty
278.15	.000131	.00000262
283.15	.0001363	.000002726
288.15	.000143	.00000286
293.15	.0001479	.000002958
298.15	.0001536	.000003072
303.15	.000161	.00000322
308.15	.000166	.00000332
313.15	.0001711	.000003422
318.15	.0001732	.000003464
323.15	.0001754	.000003508

System: ethanol + valnemulin hydrogen tartrate; phases: Liquid, Crystal
Fixed: Pressure, kPa = 101
Property: Mole fraction of valnemulin hydrogen tartrate (Liquid); method: gravimetric
Temperature, K	Mole fraction of valnemulin hydrogen tartrate	uncertainty
278.15	.001316	.00002632
283.15	.002081	.00004162
288.15	.002689	.00005378
293.15	.003095	.0000619
298.15	.003727	.00007454
303.15	.004804	.00009608
308.15	.005902	.00011804
313.15	.007659	.00015318
318.15	.010285	.0002057

System: 2-propanol + valnemulin hydrogen tartrate; phases: Liquid, Crystal
Fixed: Pressure, kPa = 101
Property: Mole fraction of valnemulin hydrogen tartrate (Liquid); method: gravimetric
Temperature, K	Mole fraction of valnemulin hydrogen tartrate	uncertainty
278.15	.0005268	.000010536
283.15	.0005986	.000011972
288.15	.0007269	.000014538
293.15	.0008465	.00001693
298.15	.00106	.0000212
303.15	.001408	.00002816
308.15	.001632	.00003264
313.15	.002073	.00004146
318.15	.0027	.000054
323.15	.003478	.00006956
328.15	.004418	.00008836
333.15	.00606	.0001212

System: n-butanol + valnemulin hydrogen tartrate; phases: Liquid, Crystal
Fixed: Pressure, kPa = 101
Property: Mole fraction of valnemulin hydrogen tartrate (Liquid); method: gravimetric
Temperature, K	Mole fraction of valnemulin hydrogen tartrate	uncertainty
278.15	.000913	.00001826
283.15	.001024	.00002048
288.15	.001145	.0000229
293.15	.001289	.00002578
298.15	.001412	.00002824
303.15	.00162	.0000324
308.15	.001838	.00003676
313.15	.002245	.0000449

System: acetone + valnemulin hydrogen tartrate; phases: Liquid, Crystal
Fixed: Pressure, kPa = 101
Property: Mole fraction of valnemulin hydrogen tartrate (Liquid); method: gravimetric
Temperature, K	Mole fraction of valnemulin hydrogen tartrate	uncertainty
278.15	.0007519	.000015038
283.15	.0008184	.000016368
288.15	.000921	.00001842
293.15	.001156	.00002312
298.15	.001375	.0000275
303.15	.001716	.00003432
308.15	.002284	.00004568
313.15	.003045	.0000609
318.15	.004098	.00008196
