Measured thermophysical data. Density of ethanolic alkali halide salt solutions by experiment andmolecular simulation
Source: Fluid Phase Equilib., 2016, 10.1016/j.fluid.2015.08.005
Compound 1: ethanol, C2H6O, purity 99.9%
Compound 2: lithium chloride, ClLi, purity 99%
Compound 3: lithium bromide, BrLi, purity 99.999%
Compound 4: lithium iodide, ILi, purity 99%
Compound 5: sodium bromide, BrNa, purity 99%
Compound 6: sodium iodide, INa, purity 99.5%
Compound 7: potassium iodide, IK, purity 99%

System: ethanol; phases: Liquid
Fixed: Pressure, kPa = 101.325
Property: Mass density, kg/m3 (Liquid); method: Vibrating tube method
Temperature, K	Mass density, kg/m3	uncertainty
298.15	785.2	.1
308.15	776.6	.1
318.15	767.8	.1
328.15	758.7	.1

System: ethanol + lithium chloride; phases: Liquid
Fixed: Pressure, kPa = 101
Property: Mass density, kg/m3 (Liquid); method: Vibrating tube method
Temperature, K	Mole fraction of lithium chloride	Mass density, kg/m3	uncertainty
298.15	.01	792.8	.1
298.15	.02	800.1	.1
298.15	.03	806.9	.1
298.15	.04	814.8	.1
298.15	.05	822.9	.1
308.15	.01	784.4	.1
308.15	.02	791.8	.1
308.15	.03	798.7	.1
308.15	.04	806.7	.1
308.15	.05	815	.1
318.15	.01	775.7	.1
318.15	.02	783.4	.1
318.15	.03	790.3	.1
318.15	.04	798.5	.1
318.15	.05	806.9	.1
328.15	.01	766.9	.1
328.15	.02	774.7	.1
328.15	.03	781.8	.1
328.15	.04	790.2	.1
328.15	.05	798.6	.1

System: ethanol + lithium bromide; phases: Liquid
Fixed: Pressure, kPa = 101
Property: Mass density, kg/m3 (Liquid); method: Vibrating tube method
Temperature, K	Mole fraction of lithium bromide	Mass density, kg/m3	uncertainty
298.15	.01	800	.1
298.15	.02	814.7	.1
298.15	.03	829.4	.1
298.15	.04	844.7	.1
298.15	.05	860.2	.1
308.15	.01	791.5	.1
308.15	.02	806.3	.1
308.15	.03	821.1	.1
308.15	.04	836.4	.1
308.15	.05	852	.1
318.15	.01	782.8	.1
318.15	.02	797.7	.1
318.15	.03	812.6	.1
318.15	.04	828	.1
318.15	.05	843.7	.1
328.15	.01	773.9	.1
328.15	.02	788.9	.1
328.15	.03	803.9	.1
328.15	.04	819.4	.1
328.15	.05	835.2	.1

System: ethanol + lithium iodide; phases: Liquid
Fixed: Pressure, kPa = 101
Property: Mass density, kg/m3 (Liquid); method: Vibrating tube method
Temperature, K	Mole fraction of lithium iodide	Mass density, kg/m3	uncertainty
298.15	.01	806.8	.1
298.15	.02	827.6	.1
298.15	.03	850.2	.1
298.15	.04	872.1	.1
298.15	.05	896.3	.1
308.15	.01	798.2	.1
308.15	.02	819.1	.1
308.15	.03	841.7	.1
308.15	.04	863.6	.1
308.15	.05	887.9	.1
318.15	.01	789.5	.1
318.15	.02	810.4	.1
318.15	.03	833	.1
318.15	.04	855	.1
318.15	.05	879.2	.1
328.15	.01	780.6	.1
328.15	.02	801.5	.1
328.15	.03	824.2	.1
328.15	.04	846.2	.1
328.15	.05	870.4	.1

System: ethanol + sodium bromide; phases: Liquid
Fixed: Pressure, kPa = 101
Property: Mass density, kg/m3 (Liquid); method: Vibrating tube method
Temperature, K	Mole fraction of sodium bromide	Mass density, kg/m3	uncertainty
298.15	.0018	788.2	.1
298.15	.0036	791	.1
298.15	.0054	793.9	.1
298.15	.0072	796.7	.1
298.15	.009	799.6	.1
308.15	.0018	779.6	.1
308.15	.0036	782.4	.1
308.15	.0054	785.3	.1
308.15	.0072	788.1	.1
308.15	.009	791	.1
318.15	.0018	770.8	.1
318.15	.0036	773.6	.1
318.15	.0054	776.5	.1
318.15	.0072	779.4	.1
318.15	.009	782.3	.1
328.15	.0018	761.8	.1
328.15	.0036	764.6	.1
328.15	.0054	767.6	.1
328.15	.0072	770.4	.1
328.15	.009	773.3	.1

System: ethanol + sodium iodide; phases: Liquid
Fixed: Pressure, kPa = 101
Property: Mass density, kg/m3 (Liquid); method: Vibrating tube method
Temperature, K	Mole fraction of sodium iodide	Mass density, kg/m3	uncertainty
298.15	.01	808.1	.1
298.15	.02	831	.1
298.15	.03	854.4	.1
298.15	.04	878.2	.1
298.15	.05	902.5	.1
308.15	.01	799.4	.1
308.15	.02	822.4	.1
308.15	.03	845.7	.1
308.15	.04	869.4	.1
308.15	.05	893.7	.1
318.15	.01	790.6	.1
318.15	.02	813.5	.1
318.15	.03	836.8	.1
318.15	.04	860.5	.1
318.15	.05	884.7	.1
328.15	.01	781.6	.1
328.15	.02	804.5	.1
328.15	.03	827.7	.1
328.15	.04	851.4	.1
328.15	.05	875.5	.1

System: ethanol + potassium iodide; phases: Liquid
Fixed: Pressure, kPa = 101
Property: Mass density, kg/m3 (Liquid); method: Vibrating tube method
Temperature, K	Mole fraction of potassium iodide	Mass density, kg/m3	uncertainty
298.15	.00113	788.1	.1
298.15	.00225	790.8	.1
298.15	.00338	793.6	.1
298.15	.0045	796.2	.1
308.15	.00113	779.5	.1
308.15	.00225	782.2	.1
308.15	.00338	785	.1
308.15	.0045	787.5	.1
318.15	.00113	770.7	.1
318.15	.00225	773.4	.1
318.15	.00338	776.2	.1
318.15	.0045	778.7	.1
328.15	.00113	761.6	.1
328.15	.00225	764.4	.1
328.15	.00338	767.1	.1
328.15	.0045	769.7	.1
