Measured thermophysical data. Solubility of CsNO3 in binary solvents formed by ethanol and water in the temperature range between 278.15 and 313.15 K
Source: Fluid Phase Equilib., 2011, 10.1016/j.fluid.2011.06.005
Compound 1: water, H2O
Compound 2: nitric acid, cesium salt, CsNO3, purity 99.5%
Compound 3: ethanol, C2H6O, purity 99.7%

System: ethanol + water + nitric acid, cesium salt; phases: Liquid, Crystal
Fixed: Pressure, kPa = 101
Property: Mass fraction of nitric acid, cesium salt (Liquid); method: solvent evaporation
Temperature, K	Solvent: Mass fraction of ethanol	Mass fraction of nitric acid, cesium salt	uncertainty
278.15	0	.1024	.0004096
278.15	.0308	.0918	.0003672
278.15	.0601	.0813	.0003252
278.15	.0895	.0721	.0002884
278.15	.1192	.0649	.0002596
278.15	.1501	.0581	.0002324
278.15	.1806	.0521	.0002084
278.15	.2103	.0473	.0001892
278.15	.2402	.0422	.0001688
283.15	0	.1277	.0005108
283.15	.0308	.1112	.0004448
283.15	.0601	.1003	.0004012
283.15	.0895	.0898	.0003592
283.15	.1192	.0822	.0003288
283.15	.1501	.0732	.0002928
283.15	.1806	.0652	.0002608
283.15	.2103	.0591	.0002364
283.15	.2402	.0541	.0002164
288.15	0	.15	.0006
288.15	.0308	.1359	.0005436
288.15	.0601	.1217	.0004868
288.15	.0895	.1113	.0004452
288.15	.1192	.1002	.0004008
288.15	.1501	.0901	.0003604
288.15	.1806	.0817	.0003268
288.15	.2103	.0744	.0002976
288.15	.2402	.0662	.0002648
293.15	0	.1823	.0007292
293.15	.0308	.1598	.0006392
293.15	.0601	.1462	.0005848
293.15	.0895	.1347	.0005388
293.15	.1192	.1221	.0004884
293.15	.1501	.1106	.0004424
293.15	.1806	.1006	.0004024
293.15	.2103	.092	.000368
293.15	.2402	.0843	.0003372
298.15	0	.2144	.0008576
298.15	.0308	.19	.00076
298.15	.0601	.1739	.0006956
298.15	.0895	.1613	.0006452
298.15	.1192	.1471	.0005884
298.15	.1501	.1338	.0005352
298.15	.1806	.1222	.0004888
298.15	.2103	.1119	.0004476
298.15	.2402	.1027	.0004108
303.15	0	.2485	.000994
303.15	.0308	.2228	.0008912
303.15	.0601	.205	.00082
303.15	.0895	.1901	.0007604
303.15	.1192	.1743	.0006972
303.15	.1501	.1593	.0006372
303.15	.1806	.1463	.0005852
303.15	.2103	.1341	.0005364
303.15	.2402	.1232	.0004928
308.15	0	.2757	.0011028
308.15	.0308	.2479	.0009916
308.15	.0601	.2315	.000926
308.15	.0895	.2143	.0008572
308.15	.1192	.1915	.000766
308.15	.1501	.1815	.000726
308.15	.1806	.1654	.0006616
308.15	.2103	.153	.000612
308.15	.2402	.1422	.0005688
313.15	0	.3156	.0012624
313.15	.0308	.2876	.0011504
313.15	.0601	.2691	.0010764
313.15	.0895	.2437	.0009748
313.15	.1192	.2253	.0009012
313.15	.1501	.2124	.0008496
313.15	.1806	.1937	.0007748
313.15	.2103	.1768	.0007072
313.15	.2402	.1674	.0006696
