Measured thermophysical data. Compressed liquid densities of two dipentaerythritol esters
Source: Fluid Phase Equilib., 2010, 10.1016/j.fluid.2010.01.019
Compound 1: pentanoic acid, 1,1'-[oxybis[2,2-bis[[(1-oxopentyl)oxy]methyl]-1,3-propanediyl]] ester, C40H70O13
Compound 2: dipentaerythritol hexaheptanoate, C52H94O13
Compound 3: water, H2O

System: pentanoic acid, 1,1'-[oxybis[2,2-bis[[(1-oxopentyl)oxy]methyl]-1,3-propanediyl]] ester; phases: Liquid
Property: Mass density, kg/m3 (Liquid); method: Vibrating tube method
Temperature, K	Pressure, kPa	Mass density, kg/m3	uncertainty
283.15	100	1045	.7
283.15	1000	1045.5	.7
283.15	5000	1047.7	.7
283.15	10000	1050.4	.7
283.15	20000	1055.8	.7
283.15	30000	1060.9	.7
283.15	40000	1065.8	.7
283.15	50000	1070.5	.7
283.15	60000	1075	.7
283.15	70000	1079.3	.7
298.15	100	1033.7	.7
298.15	1000	1034.2	.7
298.15	5000	1036.7	.7
298.15	10000	1039.7	.7
298.15	20000	1045.4	.7
298.15	30000	1050.7	.7
298.15	40000	1055.9	.7
298.15	50000	1060.8	.7
298.15	60000	1065.5	.7
298.15	70000	1070	.7
323.15	100	1014.6	.7
323.15	1000	1015.2	.7
323.15	5000	1018	.7
323.15	10000	1021.3	.7
323.15	20000	1027.6	.7
323.15	30000	1033.5	.7
323.15	40000	1039	.7
323.15	50000	1044.4	.7
323.15	60000	1049.5	.7
323.15	70000	1054.3	.7
333.15	100	1007	.7
333.15	1000	1007.7	.7
333.15	5000	1010.6	.7
333.15	10000	1014	.7
333.15	20000	1020.6	.7
333.15	30000	1026.7	.7
333.15	40000	1032.4	.7
333.15	50000	1037.9	.7
333.15	60000	1043.2	.7
333.15	70000	1048.2	.7
348.15	100	995.5	.7
348.15	1000	996.3	.7
348.15	5000	999.4	.7
348.15	10000	1003.1	.7
348.15	20000	1010	.7
348.15	30000	1016.4	.7
348.15	40000	1022.5	.7
348.15	50000	1028.3	.7
348.15	60000	1033.8	.7
348.15	70000	1039.1	.7
373.15	100	975.7	5
373.15	1000	977.3	3
373.15	5000	980.8	3
373.15	10000	984.9	3
373.15	20000	992.5	3
373.15	30000	999.6	3
373.15	40000	1006.2	3
373.15	50000	1012.5	3
373.15	60000	1018.4	3
373.15	70000	1024	3
398.15	100	957	5
398.15	1000	957.8	3
398.15	5000	961.4	3
398.15	10000	965.9	3
398.15	20000	974.4	3
398.15	30000	982.1	3
398.15	40000	989.3	3
398.15	50000	996.1	3
398.15	60000	1002.4	3
398.15	70000	1008.4	3

System: dipentaerythritol hexaheptanoate; phases: Liquid
Property: Mass density, kg/m3 (Liquid); method: Vibrating tube method
Temperature, K	Pressure, kPa	Mass density, kg/m3	uncertainty
283.15	100	1000.3	.7
283.15	1000	1000.9	.7
283.15	5000	1003.2	.7
283.15	10000	1005.9	.7
283.15	20000	1011.2	.7
283.15	30000	1016.1	.7
283.15	40000	1020.8	.7
283.15	50000	1025.4	.7
283.15	60000	1029.9	.7
283.15	70000	1034.2	.7
298.15	100	989.7	.7
298.15	1000	990.3	.7
298.15	5000	992.8	.7
298.15	10000	995.7	.7
298.15	20000	1001.3	.7
298.15	30000	1006.4	.7
298.15	40000	1011.3	.7
298.15	50000	1016.1	.7
298.15	60000	1020.7	.7
298.15	70000	1025.2	.7
323.15	100	971.7	.7
323.15	1000	972.2	.7
323.15	5000	974.9	.7
323.15	10000	978.2	.7
323.15	20000	984.4	.7
323.15	30000	990.1	.7
323.15	40000	995.5	.7
323.15	50000	1000.6	.7
323.15	60000	1005.6	.7
323.15	70000	1010.3	.7
333.15	100	964.4	.7
333.15	1000	965.1	.7
333.15	5000	967.9	.7
333.15	10000	971.3	.7
333.15	20000	977.8	.7
333.15	30000	983.7	.7
333.15	40000	989.3	.7
333.15	50000	994.6	.7
333.15	60000	999.7	.7
333.15	70000	1004.6	.7
348.15	100	953.7	.7
348.15	1000	954.4	.7
348.15	5000	957.4	.7
348.15	10000	961	.7
348.15	20000	967.8	.7
348.15	30000	974.1	.7
348.15	40000	980	.7
348.15	50000	985.6	.7
348.15	60000	990.9	.7
348.15	70000	996	.7
373.15	100	935	5
373.15	1000	936.6	3
373.15	5000	939.9	3
373.15	10000	943.9	3
373.15	20000	951.4	3
373.15	30000	958.3	3
373.15	40000	964.7	3
373.15	50000	970.8	3
373.15	60000	976.5	3
373.15	70000	981.9	3
398.15	100	917.4	5
398.15	1000	918.2	3
398.15	5000	921.7	3
398.15	10000	926.1	3
398.15	20000	934.4	3
398.15	30000	941.9	3
398.15	40000	948.9	3
398.15	50000	955.5	3
398.15	60000	961.6	3
398.15	70000	967.3	3
