Measured thermophysical data. Isothermal vapor liquid equilibrium for binary mixtures containing furfural and its derivatives
Source: Fluid Phase Equilib., 2014, 10.1016/j.fluid.2014.10.037
Compound 1: 2-methylfuran, C5H6O, purity 99%
Compound 2: furan, C4H4O, purity 99%
Compound 3: furfural, C5H4O2, purity 99%
Compound 4: 2-furanmethanol, C5H6O2, purity 98%
Compound 5: isopropyl alcohol, C3H8O, purity 99.9%

System: 2-methylfuran; phases: Liquid, Gas
Property: Vapor or sublimation pressure, kPa (Liquid); method: Closed cell (Static) method
Temperature, K	Vapor or sublimation pressure, kPa	uncertainty
353.8	161.8	.1618
353.8	162.6	.1626
357.5	181.5	.1815
357.5	181.7	.1817
358.3	186.5	.1865
362.4	210.5	.2105
362.5	211.1	.2111
363.1	214.9	.2149
367.2	242.1	.2421
367.4	242.7	.2427
367.9	246	.246
373.4	285.3	.2853
373.6	286.4	.2864
373.9	288.4	.2884
398.2	527.6	.5276
398.4	530.3	.5303
398.8	533.8	.5338
403	587.6	.5876
403.2	591.7	.5917
403.3	592.3	.5923
408.4	667.2	.6672
408.6	670.2	.6702
409	676.7	.6767

System: furan; phases: Liquid, Gas
Property: Vapor or sublimation pressure, kPa (Liquid); method: Closed cell (Static) method
Temperature, K	Vapor or sublimation pressure, kPa	uncertainty
353.4	455.1	.4551
373.1	735.6	.7356
407.9	1513.3	1.5133

System: furfural; phases: Liquid, Gas
Property: Vapor or sublimation pressure, kPa (Liquid); method: Closed cell (Static) method
Temperature, K	Vapor or sublimation pressure, kPa	uncertainty
353.2	5.9	.0059
373.4	13.6	.0136
408	46.3	.0463

System: 2-furanmethanol; phases: Liquid, Gas
Property: Vapor or sublimation pressure, kPa (Liquid); method: Closed cell (Static) method
Temperature, K	Vapor or sublimation pressure, kPa	uncertainty
353.3	2.6	.0026
373	7	.007
407.9	30.1	.0301

System: isopropyl alcohol; phases: Liquid, Gas
Property: Vapor or sublimation pressure, kPa (Liquid); method: Closed cell (Static) method
Temperature, K	Vapor or sublimation pressure, kPa	uncertainty
353.3	93.8	.0938
373.5	200.1	.2001
408.3	593.8	.5938

System: 2-furanmethanol + 2-methylfuran; phases: Liquid, Gas
Property: Vapor or sublimation pressure, kPa (Liquid); method: Closed cell (Static) method
Mole fraction of 2-methylfuran	Temperature, K	Vapor or sublimation pressure, kPa	uncertainty
.058	353.2	19.3	.0193
.112	353.2	32	.032
.207	353.2	53.8	.0538
.259	353.2	62.2	.0622
.397	353.2	83.8	.0838
.482	353.2	97.3	.0973
.572	353.2	111.1	.1111
.712	353.2	127.8	.1278
.865	353.2	146.4	.1464
.929	353.2	150	.15
.032	373.2	25.7	.0257
.111	373.2	54.2	.0542
.208	373.2	86.4	.0864
.29	373.2	112.5	.1125
.399	373.2	159	.159
.475	373.2	179.2	.1792
.571	373.2	198.1	.1981
.709	373.2	224.9	.2249
.854	373.2	254.7	.2547
.929	373.2	270.6	.2706
.028	408.2	62.5	.0625
.112	408.2	148.9	.1489
.21	408.2	241.6	.2416
.3	408.2	297.9	.2979
.402	408.2	380.5	.3805
.468	408.2	424.7	.4247
.571	408.2	467.1	.4671
.704	408.2	515.2	.5152
.841	408.2	581.2	.5812
.925	408.2	626.6	.6266

System: 2-furanmethanol + 2-methylfuran; phases: Gas, Liquid
Property: Mole fraction of 2-methylfuran (Gas); method: Chromatography
Mole fraction of 2-methylfuran	Temperature, K	Mole fraction of 2-methylfuran	uncertainty
.058	353.2	.869	.005
.112	353.2	.925	.005
.207	353.2	.959	.005
.259	353.2	.966	.005
.397	353.2	.978	.005
.482	353.2	.983	.005
.572	353.2	.987	.005
.712	353.2	.991	.005
.865	353.2	.995	.005
.929	353.2	.996	.005
.032	373.2	.729	.005
.111	373.2	.878	.005
.208	373.2	.929	.005
.29	373.2	.949	.005
.399	373.2	.968	.005
.475	373.2	.974	.005
.571	373.2	.979	.005
.709	373.2	.985	.005
.854	373.2	.991	.005
.929	373.2	.995	.005
.028	408.2	.522	.005
.112	408.2	.809	.005
.21	408.2	.891	.005
.3	408.2	.916	.005
.402	408.2	.942	.005
.468	408.2	.951	.005
.571	408.2	.96	.005
.704	408.2	.969	.005
.841	408.2	.98	.005
.925	408.2	.989	.005

System: isopropyl alcohol + 2-furanmethanol; phases: Liquid, Gas
Property: Vapor or sublimation pressure, kPa (Liquid); method: Closed cell (Static) method
Mole fraction of isopropyl alcohol	Temperature, K	Vapor or sublimation pressure, kPa	uncertainty
.062	353.2	9.5	.0095
.148	353.2	18.6	.0186
.196	353.2	23.6	.0236
.296	353.2	33.9	.0339
.412	353.2	45	.045
.499	353.2	52.5	.0525
.561	353.2	58	.058
.658	353.2	67.1	.0671
.755	353.2	73.5	.0735
.901	353.2	84.5	.0845
.084	373.2	27	.027
.123	373.2	35.2	.0352
.181	373.2	46.5	.0465
.25	373.2	60.1	.0601
.392	373.2	87.9	.0879
.46	373.2	100.4	.1004
.541	373.2	116.6	.1166
.669	373.2	140.8	.1408
.74	373.2	153.3	.1533
.904	373.2	179.8	.1798
.099	408.2	92	.092
.125	408.2	108.3	.1083
.206	408.2	157.1	.1571
.35	408.2	242.4	.2424
.387	408.2	262.1	.2621
.461	408.2	304.8	.3048
.536	408.2	346.1	.3461
.651	408.2	402.4	.4024
.715	408.2	433.5	.4335
.857	408.2	512.3	.5123

System: isopropyl alcohol + 2-furanmethanol; phases: Gas, Liquid
Property: Mole fraction of isopropyl alcohol (Gas); method: Chromatography
Mole fraction of isopropyl alcohol	Temperature, K	Mole fraction of isopropyl alcohol	uncertainty
.062	353.2	.737	.005
.148	353.2	.877	.005
.196	353.2	.908	.005
.296	353.2	.943	.005
.412	353.2	.963	.005
.499	353.2	.972	.005
.561	353.2	.977	.005
.658	353.2	.984	.005
.755	353.2	.989	.005
.901	353.2	.996	.005
.084	373.2	.756	.005
.123	373.2	.82	.005
.181	373.2	.871	.005
.25	373.2	.907	.005
.392	373.2	.947	.005
.46	373.2	.958	.005
.541	373.2	.968	.005
.669	373.2	.98	.005
.74	373.2	.985	.005
.904	373.2	.995	.005
.099	408.2	.693	.005
.125	408.2	.745	.005
.206	408.2	.837	.005
.35	408.2	.909	.005
.387	408.2	.92	.005
.461	408.2	.938	.005
.536	408.2	.951	.005
.651	408.2	.967	.005
.715	408.2	.974	.005
.857	408.2	.987	.005

System: furfural + furan; phases: Liquid, Gas
Property: Vapor or sublimation pressure, kPa (Liquid); method: Closed cell (Static) method
Mole fraction of furan	Temperature, K	Vapor or sublimation pressure, kPa	uncertainty
.08	353.2	44.7	.0447
.164	353.2	85.4	.0854
.271	353.2	135.4	.1354
.401	353.2	194.8	.1948
.459	353.2	214.4	.2144
.541	353.2	248	.248
.642	353.2	291.3	.2913
.703	353.2	315.7	.3157
.802	353.2	360	.36
.918	353.2	410.4	.4104
.073	373.2	84.7	.0847
.155	373.2	148.9	.1489
.248	373.2	212.2	.2122
.405	373.2	319.2	.3192
.459	373.2	348.7	.3487
.548	373.2	408.5	.4085
.656	373.2	471.1	.4711
.721	373.2	514.1	.5141
.82	373.2	591.3	.5913
.92	373.2	668.1	.6681
.08	408.2	185.8	.1858
.14	408.2	273.7	.2737
.257	408.2	432.5	.4325
.411	408.2	648.6	.6486
.457	408.2	709.4	.7094
.547	408.2	823.3	.8233
.653	408.2	963.1	.9631
.719	408.2	1058.6	1.0586
.821	408.2	1220.8	1.2208
.931	408.2	1402.8	1.4028

System: furfural + furan; phases: Gas, Liquid
Property: Mole fraction of furan (Gas); method: Chromatography
Mole fraction of furan	Temperature, K	Mole fraction of furan	uncertainty
.08	353.2	.875	.005
.164	353.2	.939	.005
.271	353.2	.965	.005
.401	353.2	.979	.005
.459	353.2	.982	.005
.541	353.2	.986	.005
.642	353.2	.99	.005
.703	353.2	.992	.005
.802	353.2	.995	.005
.918	353.2	.998	.005
.073	373.2	.845	.005
.155	373.2	.915	.005
.248	373.2	.944	.005
.405	373.2	.968	.005
.459	373.2	.972	.005
.548	373.2	.979	.005
.656	373.2	.985	.005
.721	373.2	.988	.005
.82	373.2	.993	.005
.92	373.2	.997	.005
.08	408.2	.754	.005
.14	408.2	.835	.005
.257	408.2	.9	.005
.411	408.2	.942	.005
.457	408.2	.95	.005
.547	408.2	.961	.005
.653	408.2	.972	.005
.719	408.2	.978	.005
.821	408.2	.987	.005
.931	408.2	.995	.005
