Measured thermophysical data. Extraction of benzene, ethylbenzene, and xylenes from n-heptane using binary mixtures of [4empy][Tf2N] and [emim][DCA] ionic liquids
Source: Fluid Phase Equilib., 2014, 10.1016/j.fluid.2014.07.034
Compound 1: benzene, C6H6, purity 99.5%
Compound 2: ethylbenzene, C8H10, purity 99.8%
Compound 3: o-xylene, C8H10, purity 99%
Compound 4: m-xylene, C8H10, purity 99%
Compound 5: p-xylene, C8H10, purity 99%
Compound 6: n-heptane, C7H16, purity 99.7%
Compound 7: sulfolane, C4H8O2S, purity 99%

System: benzene + sulfolane + n-heptane; phases: Liquid mixture 2, Liquid mixture 1
Property: Mole fraction of benzene (Liquid mixture 2); method: Chromatography
Property: Mole fraction of n-heptane (Liquid mixture 1); method: Chromatography
Property: Mole fraction of benzene (Liquid mixture 1); method: Chromatography
Temperature, K	Pressure, kPa	Mole fraction of n-heptane	Mole fraction of benzene	uncertainty	Mole fraction of n-heptane	uncertainty	Mole fraction of benzene	uncertainty
313.2	100	.0099	.0398	.0012	.9318	.0008	.0643	.0012

System: ethylbenzene + sulfolane + n-heptane; phases: Liquid mixture 2, Liquid mixture 1
Property: Mole fraction of ethylbenzene (Liquid mixture 2); method: Chromatography
Property: Mole fraction of n-heptane (Liquid mixture 1); method: Chromatography
Property: Mole fraction of ethylbenzene (Liquid mixture 1); method: Chromatography
Temperature, K	Pressure, kPa	Mole fraction of n-heptane	Mole fraction of ethylbenzene	uncertainty	Mole fraction of n-heptane	uncertainty	Mole fraction of ethylbenzene	uncertainty
313.2	100	.0106	.0179	.0012	.9246	.0008	.0716	.0012

System: o-xylene + sulfolane + n-heptane; phases: Liquid mixture 2, Liquid mixture 1
Property: Mole fraction of o-xylene (Liquid mixture 2); method: Chromatography
Property: Mole fraction of n-heptane (Liquid mixture 1); method: Chromatography
Property: Mole fraction of o-xylene (Liquid mixture 1); method: Chromatography
Temperature, K	Pressure, kPa	Mole fraction of n-heptane	Mole fraction of o-xylene	uncertainty	Mole fraction of n-heptane	uncertainty	Mole fraction of o-xylene	uncertainty
313.2	100	.0115	.0201	.0012	.9288	.0008	.0675	.0012

System: m-xylene + sulfolane + n-heptane; phases: Liquid mixture 2, Liquid mixture 1
Property: Mole fraction of m-xylene (Liquid mixture 2); method: Chromatography
Property: Mole fraction of n-heptane (Liquid mixture 1); method: Chromatography
Property: Mole fraction of m-xylene (Liquid mixture 1); method: Chromatography
Temperature, K	Pressure, kPa	Mole fraction of n-heptane	Mole fraction of m-xylene	uncertainty	Mole fraction of n-heptane	uncertainty	Mole fraction of m-xylene	uncertainty
313.2	100	.011	.018	.0012	.9244	.0008	.0721	.0012

System: p-xylene + sulfolane + n-heptane; phases: Liquid mixture 2, Liquid mixture 1
Property: Mole fraction of p-xylene (Liquid mixture 2); method: Chromatography
Property: Mole fraction of n-heptane (Liquid mixture 1); method: Chromatography
Property: Mole fraction of p-xylene (Liquid mixture 1); method: Chromatography
Temperature, K	Pressure, kPa	Mole fraction of n-heptane	Mole fraction of p-xylene	uncertainty	Mole fraction of n-heptane	uncertainty	Mole fraction of p-xylene	uncertainty
313.2	100	.0095	.0168	.0012	.9236	.0008	.0721	.0012
