Measured thermophysical data. Isothermal vapor liquid equilibrium measurements for difluoromethane (R32) + trans-1,3,3,3-tetrafluoropropene (R1234ze(E))
Source: Fluid Phase Equilib., 2017, 10.1016/j.fluid.2016.10.011
Compound 1: R-32, CH2F2, purity 99.8%
Compound 2: R-134a, C2H2F4, purity 99.9%
Compound 3: HFO 1234ze(E), C3H2F4, purity 99.5%

System: R-32; phases: Liquid, Gas
Property: Vapor or sublimation pressure, kPa (Liquid); method: Closed cell (Static) method
Temperature, K	Vapor or sublimation pressure, kPa	uncertainty
283.152	1107.3	
288.154	1280.6	
293.147	1474	
298.165	1689.5	
303.143	1925.8	
308.15	2188.2	
313.146	2476.2	
318.143	2791.6	
323.145	3138	

System: R-134a; phases: Liquid, Gas
Property: Vapor or sublimation pressure, kPa (Liquid); method: Closed cell (Static) method
Temperature, K	Vapor or sublimation pressure, kPa	uncertainty
283.151	413.8	
288.165	488.4	
293.151	571.2	
298.161	665.1	
303.156	769.8	
308.15	885.9	
313.147	1015.3	
318.141	1158.4	
323.146	1316.1	

System: HFO 1234ze(E); phases: Liquid, Gas
Property: Vapor or sublimation pressure, kPa (Liquid); method: Closed cell (Static) method
Temperature, K	Vapor or sublimation pressure, kPa	uncertainty
283.145	308.6	
288.149	364.7	
293.155	428	
298.139	499	
303.142	578.9	
308.159	668.4	
313.159	767.4	
318.156	877.1	
323.141	997.8	

System: R-32 + R-134a; phases: Gas, Liquid
Property: Vapor or sublimation pressure, kPa (Gas); method: Closed cell (Static) method
Mole fraction of R-32	Temperature, K	Vapor or sublimation pressure, kPa	uncertainty
0	283.15	413.8	
.0906	283.15	472.9	
.1875	283.15	538.7	
.3354	283.15	639.5	
.4399	283.15	714.1	
.6185	283.15	835.5	
.7795	283.15	950.1	
.9274	283.15	1053.2	
1	283.15	1107.3	
0	303.15	769.8	
.0875	303.15	862.9	
.1846	303.15	967.9	
.3317	303.15	1132.2	
.4375	303.15	1253.8	
.6186	303.15	1460.2	
.7779	303.15	1652.5	
.9255	303.15	1831.4	
1	303.15	1925.8	
0	323.15	1316.1	
.0857	323.15	1453.6	
.1819	323.15	1611.1	
.3295	323.15	1863.4	
.4359	323.15	2052.4	
.6124	323.15	2368.4	
.7772	323.15	2684.1	
.9206	323.15	2972.1	
1	323.15	3138	

System: R-32 + R-134a; phases: Gas, Liquid
Property: Mole fraction of R-32 (Gas); method: Chromatography
Mole fraction of R-32	Temperature, K	Mole fraction of R-32	uncertainty
0	283.15	0	
.0906	283.15	.1802	
.1875	283.15	.3422	
.3354	283.15	.5356	
.4399	283.15	.6382	
.6185	283.15	.772	
.7795	283.15	.8745	
.9274	283.15	.9635	
1	283.15	1	
0	303.15	0	
.0875	303.15	.1661	
.1846	303.15	.3098	
.3317	303.15	.4884	
.4375	303.15	.593	
.6186	303.15	.752	
.7779	303.15	.8662	
.9255	303.15	.9578	
1	303.15	1	
0	323.15	0	
.0857	323.15	.148	
.1819	323.15	.2903	
.3295	323.15	.4509	
.4359	323.15	.5618	
.6124	323.15	.7261	
.7772	323.15	.8519	
.9206	323.15	.9487	
1	323.15	1	

System: R-32 + HFO 1234ze(E); phases: Gas, Liquid
Property: Vapor or sublimation pressure, kPa (Gas); method: Closed cell (Static) method
Mole fraction of R-32	Temperature, K	Vapor or sublimation pressure, kPa	uncertainty
0	283.15	308.6	
.0644	283.15	368.4	
.1351	283.15	431.1	
.2099	283.15	498.1	
.2697	283.15	550.8	
.3378	283.15	608.9	
.4504	283.15	700.6	
.546	283.15	775.2	
.6142	283.15	822.9	
.6617	283.15	860.2	
.7892	283.15	956.7	
.9104	283.15	1039.6	
1	283.15	1107.3	
0	293.15	428	
.0624	293.15	502.9	
.1239	293.15	574.4	
.2053	293.15	668.1	
.2633	293.15	734.7	
.3331	293.15	810.4	
.4453	293.15	929.6	
.5421	293.15	1026.5	
.6099	293.15	1090.7	
.6587	293.15	1140.5	
.7877	293.15	1268.3	
.9093	293.15	1383.4	
1	293.15	1474	
0	303.15	578.9	
.0612	303.15	671.4	
.1214	303.15	759.8	
.2026	303.15	876.9	
.2598	303.15	959.3	
.3295	303.15	1055.7	
.4429	303.15	1208.3	
.54	303.15	1335.2	
.6072	303.15	1418.8	
.6566	303.15	1483.7	
.7872	303.15	1652.1	
.909	303.15	1806.4	
1	303.15	1925.8	
0	313.15	767.4	
.0602	313.15	878.6	
.1176	313.15	982.5	
.1998	313.15	1129.1	
.2574	313.15	1231.9	
.327	313.15	1352.3	
.4408	313.15	1545.2	
.537	313.15	1704.8	
.603	313.15	1810.3	
.654	313.15	1895.9	
.7864	313.15	2115.6	
.9081	313.15	2317	
1	313.15	2476.2	
0	323.15	997.8	
.0595	323.15	1130.6	
.116	323.15	1254.5	
.1975	323.15	1432	
.2539	323.15	1555.3	
.3233	323.15	1703.6	
.4366	323.15	1943.3	
.5348	323.15	2145.3	
.5995	323.15	2276.3	
.6515	323.15	2386.5	
.7861	323.15	2671.5	
.9055	323.15	2929.3	
1	323.15	3138	

System: R-32 + HFO 1234ze(E); phases: Gas, Liquid
Property: Mole fraction of R-32 (Gas); method: Chromatography
Mole fraction of R-32	Temperature, K	Mole fraction of R-32	uncertainty
0	283.15	0	
.0644	283.15	.1948	
.1351	283.15	.3291	
.2099	283.15	.5015	
.2697	283.15	.5595	
.3378	283.15	.6242	
.4504	283.15	.7184	
.546	283.15	.7822	
.6142	283.15	.8041	
.6617	283.15	.8488	
.7892	283.15	.9109	
.9104	283.15	.959	
1	283.15	1	
0	293.15	0	
.0624	293.15	.1785	
.1239	293.15	.3189	
.2053	293.15	.456	
.2633	293.15	.5311	
.3331	293.15	.5973	
.4453	293.15	.6932	
.5421	293.15	.7612	
.6099	293.15	.8046	
.6587	293.15	.8317	
.7877	293.15	.8972	
.9093	293.15	.9563	
1	293.15	1	
0	303.15	0	
.0612	303.15	.1642	
.1214	303.15	.2936	
.2026	303.15	.4321	
.2598	303.15	.4999	
.3295	303.15	.5757	
.4429	303.15	.6756	
.54	303.15	.7458	
.6072	303.15	.7879	
.6566	303.15	.8167	
.7872	303.15	.8918	
.909	303.15	.9531	
1	303.15	1	
0	313.15	0	
.0602	313.15	.1499	
.1176	313.15	.2738	
.1998	313.15	.3993	
.2574	313.15	.4687	
.327	313.15	.5474	
.4408	313.15	.6512	
.537	313.15	.725	
.603	313.15	.7713	
.654	313.15	.8001	
.7864	313.15	.8847	
.9081	313.15	.9441	
1	313.15	1	
0	323.15	0	
.0595	323.15	.1357	
.116	323.15	.251	
.1975	323.15	.3688	
.2539	323.15	.4419	
.3233	323.15	.52	
.4366	323.15	.6279	
.5348	323.15	.7039	
.5995	323.15	.7518	
.6515	323.15	.7843	
.7861	323.15	.8673	
.9055	323.15	.9381	
1	323.15	1	
