Measured thermophysical data. Isobaric vapor-liquid equilibrium of binary systems of decane with p-, o-, m-xylene at 20 kPa
Source: Fluid Phase Equilib., 2013, 10.1016/j.fluid.2012.09.019
Compound 1: n-decane, C10H22
Compound 2: p-xylene, C8H10
Compound 3: o-xylene, C8H10
Compound 4: 1,3-xylene, C8H10
Compound 5: benzene, C6H6
Compound 6: phenylmethane, C7H8

System: n-decane; phases: Liquid
Fixed: Pressure, kPa = 101.325
Property: Mass density, kg/m3 (Liquid); method: Vibrating tube method
Temperature, K	Mass density, kg/m3	uncertainty
298.15	726.36	.05

System: n-decane; phases: Liquid
Fixed: Pressure, kPa = 101.325
Property: Refractive index (Na D-line) (Liquid); method: Standard Abbe refractometry
Temperature, K	Refractive index (Na D-line)	uncertainty
298.15	1.4108	.0002

System: p-xylene; phases: Liquid
Fixed: Pressure, kPa = 101.325
Property: Mass density, kg/m3 (Liquid); method: Vibrating tube method
Temperature, K	Mass density, kg/m3	uncertainty
298.15	856.71	.05

System: p-xylene; phases: Liquid
Fixed: Pressure, kPa = 101.325
Property: Refractive index (Na D-line) (Liquid); method: Standard Abbe refractometry
Temperature, K	Refractive index (Na D-line)	uncertainty
298.15	1.4957	.0002

System: o-xylene; phases: Liquid
Fixed: Pressure, kPa = 101.325
Property: Mass density, kg/m3 (Liquid); method: Vibrating tube method
Temperature, K	Mass density, kg/m3	uncertainty
298.15	859.54	.05

System: o-xylene; phases: Liquid
Fixed: Pressure, kPa = 101.325
Property: Refractive index (Na D-line) (Liquid); method: Standard Abbe refractometry
Temperature, K	Refractive index (Na D-line)	uncertainty
298.15	1.4945	.0002

System: 1,3-xylene; phases: Liquid
Fixed: Pressure, kPa = 101.325
Property: Mass density, kg/m3 (Liquid); method: Vibrating tube method
Temperature, K	Mass density, kg/m3	uncertainty
298.15	859.95	.05

System: 1,3-xylene; phases: Liquid
Fixed: Pressure, kPa = 101.325
Property: Refractive index (Na D-line) (Liquid); method: Standard Abbe refractometry
Temperature, K	Refractive index (Na D-line)	uncertainty
298.15	1.4946	.0002

System: benzene + phenylmethane; phases: Liquid, Gas
Property: Boiling temperature at pressure P, K (Liquid); method: Ebulliometric method (Recirculating still)
Mole fraction of benzene	Pressure, kPa	Boiling temperature at pressure P, K	uncertainty
0	101.3	383.82	.02
.071	101.3	380.67	.02
.134	101.3	377.99	.02
.205	101.3	375.24	.02
.293	101.3	372	.02
.375	101.3	369.18	.02
.456	101.3	366.67	.02
.543	101.3	364.05	.02
.639	101.3	361.41	.02
.731	101.3	359.07	.02
.804	101.3	357.37	.02
.903	101.3	355.2	.02
.951	101.3	354.25	.02
1	101.3	353.27	.02

System: benzene + phenylmethane; phases: Gas, Liquid
Property: Mole fraction of benzene (Gas); method: Chromatography
Mole fraction of benzene	Pressure, kPa	Mole fraction of benzene	uncertainty
0	101.3	0	.001
.071	101.3	.148	.001
.134	101.3	.265	.001
.205	101.3	.376	.001
.293	101.3	.497	.001
.375	101.3	.593	.001
.456	101.3	.672	.001
.543	101.3	.747	.001
.639	101.3	.817	.001
.731	101.3	.873	.001
.804	101.3	.91	.001
.903	101.3	.957	.001
.951	101.3	.979	.001
1	101.3	1	.001

System: p-xylene + n-decane; phases: Liquid, Gas
Property: Boiling temperature at pressure P, K (Liquid); method: Ebulliometric method (Recirculating still)
Mole fraction of n-decane	Pressure, kPa	Boiling temperature at pressure P, K	uncertainty
0	20	359.81	.02
.042	20	360.62	.02
.103	20	361.91	.02
.191	20	363.91	.02
.283	20	366.1	.02
.368	20	368.29	.02
.458	20	370.89	.02
.571	20	374.49	.02
.668	20	377.89	.02
.759	20	381.42	.02
.847	20	385.28	.02
.929	20	389.31	.02
1	20	393.12	.02

System: p-xylene + n-decane; phases: Gas, Liquid
Property: Mole fraction of n-decane (Gas); method: Chromatography
Mole fraction of n-decane	Pressure, kPa	Mole fraction of n-decane	uncertainty
0	20	0	.001
.042	20	.013	.001
.103	20	.032	.001
.191	20	.065	.001
.283	20	.102	.001
.368	20	.147	.001
.458	20	.2	.001
.571	20	.29	.001
.668	20	.384	.001
.759	20	.496	.001
.847	20	.64	.001
.929	20	.8	.001
1	20	1	.001

System: o-xylene + n-decane; phases: Liquid, Gas
Property: Boiling temperature at pressure P, K (Liquid); method: Ebulliometric method (Recirculating still)
Mole fraction of n-decane	Pressure, kPa	Boiling temperature at pressure P, K	uncertainty
0	20	365.16	.02
.051	20	366.11	.02
.137	20	367.78	.02
.219	20	369.46	.02
.331	20	371.95	.02
.422	20	374.11	.02
.556	20	377.66	.02
.639	20	380.06	.02
.713	20	382.36	.02
.809	20	385.61	.02
.89	20	388.59	.02
.958	20	391.33	.02
1	20	393.12	.02

System: o-xylene + n-decane; phases: Gas, Liquid
Property: Mole fraction of n-decane (Gas); method: Chromatography
Mole fraction of n-decane	Pressure, kPa	Mole fraction of n-decane	uncertainty
0	20	0	.001
.051	20	.019	.001
.137	20	.052	.001
.219	20	.092	.001
.331	20	.15	.001
.422	20	.212	.001
.556	20	.316	.001
.639	20	.401	.001
.713	20	.484	.001
.809	20	.623	.001
.89	20	.758	.001
.958	20	.899	.001
1	20	1	.001

System: 1,3-xylene + n-decane; phases: Liquid, Gas
Property: Boiling temperature at pressure P, K (Liquid); method: Ebulliometric method (Recirculating still)
Mole fraction of n-decane	Pressure, kPa	Boiling temperature at pressure P, K	uncertainty
0	20	360.59	.02
.063	20	361.71	.02
.128	20	362.9	.02
.204	20	364.36	.02
.291	20	366.17	.02
.389	20	368.41	.02
.473	20	370.55	.02
.564	20	373.16	.02
.652	20	376.04	.02
.743	20	379.49	.02
.836	20	383.66	.02
.89	20	386.43	.02
.973	20	391.29	.02
1	20	393.12	.02

System: 1,3-xylene + n-decane; phases: Gas, Liquid
Property: Mole fraction of n-decane (Gas); method: Chromatography
Mole fraction of n-decane	Pressure, kPa	Mole fraction of n-decane	uncertainty
0	20	0	.001
.063	20	.025	.001
.128	20	.046	.001
.204	20	.079	.001
.291	20	.114	.001
.389	20	.166	.001
.473	20	.212	.001
.564	20	.28	.001
.652	20	.355	.001
.743	20	.461	.001
.836	20	.599	.001
.89	20	.707	.001
.973	20	.912	.001
1	20	1	.001
