Measured thermophysical data. Effect of cosolvent on cloud-point of binary and ternary systems for the  poly(4-chlorostyrene) + cosolvent mixtures in supercritical fluid solvents
Source: Fluid Phase Equilib., 2013, 10.1016/j.fluid.2012.08.025
Compound 1: 1-chloro-4-vinylbenzene, C8H7Cl, purity 97%
Compound 2: carbon dioxide, CO2, purity 99.8%

System: carbon dioxide + 1-chloro-4-vinylbenzene; phases: Liquid, Gas
Property: Vapor or sublimation pressure, kPa (Liquid); method: Closed cell (Static) method
Temperature, K	Mole fraction of 1-chloro-4-vinylbenzene	Vapor or sublimation pressure, kPa	uncertainty
313.2	.06	9860	30
313.2	.084	9720	30
313.2	.109	9690	30
313.2	.137	9670	30
313.2	.168	9640	30
313.2	.211	9330	30
313.2	.266	9180	30
313.2	.393	8560	30
313.2	.49	7970	30
313.2	.559	7460	30
333.2	.06	14000	30
333.2	.084	13940	30
333.2	.109	13940	30
333.2	.137	13830	30
333.2	.168	13660	30
333.2	.211	13290	30
333.2	.266	12820	30
333.2	.393	11420	30
333.2	.49	10100	30
333.2	.559	9130	30
353.2	.06	17000	30
353.2	.084	17760	30
353.2	.109	17650	30
353.2	.137	17480	30
353.2	.168	17480	30
353.2	.211	17070	30
353.2	.266	16230	30
353.2	.393	14040	30
353.2	.49	12000	30
353.2	.559	10720	30
373.2	.06	19900	30
373.2	.084	20970	30
373.2	.109	20820	30
373.2	.137	20720	30
373.2	.168	20310	30
373.2	.211	19900	30
373.2	.266	18930	30
373.2	.393	16300	30
373.2	.49	13830	30
373.2	.559	12320	30
393.2	.06	21830	30
393.2	.084	23620	30
393.2	.109	23740	30
393.2	.137	23730	30
393.2	.168	22990	30
393.2	.211	22100	30
393.2	.266	21070	30
393.2	.393	18290	30
393.2	.49	15690	30
393.2	.559	13830	30
