Measured thermophysical data. Equilibrium solubility of carbon dioxide in 2(methylamino)ethanol
Source: Fluid Phase Equilib., 2011, 10.1016/j.fluid.2011.01.016
Compound 1: 2-(methylamino)ethanol, C3H9NO, purity 99%
Compound 2: water, H2O, purity 99.8%
Compound 3: carbon dioxide, CO2, purity 99.8%

System: 2-(methylamino)ethanol + carbon dioxide + water; phases: Liquid, Gas
Property: Mole fraction of carbon dioxide (Liquid); method: Titration method
Temperature, K	Partial pressure, kPa of carbon dioxide	Solvent: Amount concentration (molarity), mol/dm3 of 2-(methylamino)ethanol	Mole fraction of carbon dioxide	uncertainty
303	99.1	.9605	.01759	.00003518
303	49.4	1.0103	.01759	.00003518
303	24.7	.9605	.01536	.00003072
303	9.8	1.0103	.01497	.00002994
303	4.9	1.0103	.01478	.00002956
303	1	.9958	.01078	.00002156
313	98.9	1.0103	.01739	.00003478
313	49.4	.9605	.01623	.00003246
313	24.6	1.0103	.0142	.0000284
333	98.4	.9605	.01739	.00003478
333	49.4	.9605	.01381	.00002762
333	24.6	1.0103	.01283	.00002566
303	98.8	2.0105	.06498	.00012996
303	49	2.0105	.05856	.00011712
303	24.6	2.0105	.05553	.00011106
303	9.9	2.0105	.05195	.0001039
303	4.9	2.0105	.04898	.00009796
303	1	1.9826	.04104	.00008208
313	98.6	2.0105	.06183	.00012366
313	49.1	2.0105	.05348	.00010696
313	24.6	2.0105	.05114	.00010228
333	98.6	2.0105	.055	.00011
333	49.3	2.0105	.04925	.0000985
333	24.8	2.0105	.04771	.00009542
303	24.6	4.0096	.16072	.00032144
303	9.9	4.0096	.15533	.00031066
303	4.9	4.0096	.14886	.00029772
303	1	4.0416	.13778	.00027556
