Measured thermophysical data. Thermodynamics of the solubility of lomefloxacin in methanol, ethanol, 1-propanol, 2-propanol, acetone, and chloroform from 293.15 to 323.15 K
Source: Fluid Phase Equilib., 2012, 10.1016/j.fluid.2012.02.011
Compound 1: lomefloxacin, C17H19F2N3O3
Compound 2: methanol, CH4O, purity 99.6%
Compound 3: ethanol, C2H6O, purity 99.8%
Compound 4: 1-propanol, C3H8O, purity 99.7%
Compound 5: 2-propanol, C3H8O, purity 99.6%
Compound 6: acetone, C3H6O, purity 99.7%
Compound 7: trichloromethane, CHCl3, purity 99.8%

System: methanol + lomefloxacin; phases: Liquid, Crystal
Fixed: Pressure, kPa = 101
Property: Mole fraction of lomefloxacin (Liquid); method: UV Spectrophotometry
Temperature, K	Mole fraction of lomefloxacin	uncertainty
293.15	.00003867	.000000024
298.15	.00004757	.000000024
303.15	.00005949	.000000024
308.15	.00007848	.000000024
313.15	.0001052	.000000024
318.15	.0001448	.000000024
323.15	.0002089	.000000024

System: ethanol + lomefloxacin; phases: Liquid, Crystal
Fixed: Pressure, kPa = 101
Property: Mole fraction of lomefloxacin (Liquid); method: UV Spectrophotometry
Temperature, K	Mole fraction of lomefloxacin	uncertainty
293.15	.00001222	.000000024
298.15	.00001639	.000000024
303.15	.00002217	.000000024
308.15	.00002863	.000000024
313.15	.00003735	.000000024
318.15	.00004705	.000000024
323.15	.00005898	.000000024

System: 1-propanol + lomefloxacin; phases: Liquid, Crystal
Fixed: Pressure, kPa = 101
Property: Mole fraction of lomefloxacin (Liquid); method: UV Spectrophotometry
Temperature, K	Mole fraction of lomefloxacin	uncertainty
293.15	.00001069	.000000024
298.15	.00001364	.000000024
303.15	.00001756	.000000024
308.15	.00002321	.000000024
313.15	.00003036	.000000024
318.15	.00003989	.000000024
323.15	.00005334	.000000024

System: 2-propanol + lomefloxacin; phases: Liquid, Crystal
Fixed: Pressure, kPa = 101
Property: Mole fraction of lomefloxacin (Liquid); method: UV Spectrophotometry
Temperature, K	Mole fraction of lomefloxacin	uncertainty
293.15	.000005738	.000000024
298.15	.000008552	.000000024
303.15	.00001231	.000000024
308.15	.00001668	.000000024
313.15	.00002232	.000000024
318.15	.00002926	.000000024
323.15	.00003616	.000000024

System: acetone + lomefloxacin; phases: Liquid, Crystal
Fixed: Pressure, kPa = 101
Property: Mole fraction of lomefloxacin (Liquid); method: UV Spectrophotometry
Temperature, K	Mole fraction of lomefloxacin	uncertainty
293.15	.000008633	.000000024
298.15	.00001099	.000000024
303.15	.00001429	.000000024
308.15	.00001917	.000000024
313.15	.00002566	.000000024
318.15	.00003535	.000000024
323.15	.00004952	.000000024

System: trichloromethane + lomefloxacin; phases: Liquid, Crystal
Fixed: Pressure, kPa = 101
Property: Mole fraction of lomefloxacin (Liquid); method: UV Spectrophotometry
Temperature, K	Mole fraction of lomefloxacin	uncertainty
293.15	.00004079	.000000024
298.15	.00005939	.000000024
303.15	.00008634	.000000024
308.15	.0001302	.000000024
313.15	.0001963	.000000024
318.15	.0003035	.000000024
323.15	.0004652	.000000024
