Measured thermophysical data. Alkylsulfate-based ionic liquids to separate azeotropic mixtures
Source: Fluid Phase Equilib., 2010, 10.1016/j.fluid.2009.12.016
Compound 1: hexane, C6H14, purity 99%
Compound 2: heptane, C7H16, purity 99%
Compound 3: ethanol, C2H6O, purity 99.8%
Compound 4: 1-ethyl-3-methylimidazolium ethyl sulfate, C8H16N2O4S, purity 99%

System: 1-ethyl-3-methylimidazolium ethyl sulfate; phases: Liquid
Fixed: Pressure, kPa = 101.325
Property: Mass density, kg/m3 (Liquid); method: Vibrating tube method
Temperature, K	Mass density, kg/m3	uncertainty
298.15	1237.5	.2

System: 1-ethyl-3-methylimidazolium ethyl sulfate; phases: Liquid
Fixed: Pressure, kPa = 101.325
Property: Refractive index (Na D-line) (Liquid); method: Standard Abbe refractometry
Temperature, K	Refractive index (Na D-line)	uncertainty
298.15	1.4794	.00004

System: ethanol + hexane + 1-ethyl-3-methylimidazolium ethyl sulfate; phases: Liquid mixture 1, Liquid mixture 2
Property: Mole fraction of hexane (Liquid mixture 1); method: Density calibration data
Property: Mole fraction of ethanol (Liquid mixture 2); method: Density calibration data
Property: Mole fraction of hexane (Liquid mixture 2); method: Density calibration data
Temperature, K	Pressure, kPa	Mole fraction of ethanol	Mole fraction of hexane	uncertainty	Mole fraction of ethanol	uncertainty	Mole fraction of hexane	uncertainty
298.15	101.3	0	1	.004	.2	.004	0	.004
298.15	101.3	.317	.673	.004	.709	.004	.237	.004
298.15	101.3	.338	.652	.004	.658	.004	.299	.004
298.15	101.3	.001	.999	.004	.332	.004	0	.004
298.15	101.3	.005	.995	.004	.452	.004	0	.004
298.15	101.3	.012	.989	.004	.541	.004	.013	.004
298.15	101.3	.023	.977	.004	.602	.004	.025	.004
298.15	101.3	.065	.935	.004	.681	.004	.046	.004
298.15	101.3	.116	.884	.004	.74	.004	.057	.004
298.15	101.3	.185	.815	.004	.767	.004	.09	.004
298.15	101.3	.208	.787	.004	.746	.004	.157	.004

System: ethanol + heptane + 1-ethyl-3-methylimidazolium ethyl sulfate; phases: Liquid mixture 2, Liquid mixture 1
Property: Mole fraction of heptane (Liquid mixture 2); method: Density calibration data
Property: Mole fraction of ethanol (Liquid mixture 1); method: Density calibration data
Property: Mole fraction of heptane (Liquid mixture 1); method: Density calibration data
Temperature, K	Pressure, kPa	Mole fraction of ethanol	Mole fraction of heptane	uncertainty	Mole fraction of ethanol	uncertainty	Mole fraction of heptane	uncertainty
298.15	101.3	.142	0	.004	.012	.004	.988	.004
298.15	101.3	.779	.13	.004	.325	.004	.675	.004
298.15	101.3	.75	.191	.004	.383	.004	.616	.004
298.15	101.3	.709	.249	.004	.49	.004	.509	.004
298.15	101.3	.297	0	.004	.015	.004	.985	.004
298.15	101.3	.434	.001	.004	.02	.004	.98	.004
298.15	101.3	.537	.009	.004	.025	.004	.975	.004
298.15	101.3	.608	.014	.004	.029	.004	.971	.004
298.15	101.3	.697	.029	.004	.063	.004	.937	.004
298.15	101.3	.748	.05	.004	.123	.004	.877	.004
298.15	101.3	.777	.072	.004	.174	.004	.826	.004
298.15	101.3	.782	.099	.004	.239	.004	.761	.004
