Measured thermophysical data. Vapor-liquid equilibria of binary mixtures of propylene oxide witheither ethyl benzene, 2-methylpentane, or 2-methyl-1-pentene
Source: Fluid Phase Equilib., 2013, 10.1016/j.fluid.2013.04.008
Compound 1: propylene oxide, C3H6O, purity 99%
Compound 2: ethylbenzene, C8H10, purity 99%
Compound 3: 2-methylpentane, C6H14, purity 99%
Compound 4: 2-methyl-1-pentene, C6H12, purity 99%

System: propylene oxide + ethylbenzene; phases: Liquid, Gas
Property: Vapor or sublimation pressure, kPa (Liquid); method: Closed cell (Static) method
Mole fraction of propylene oxide	Temperature, K	Vapor or sublimation pressure, kPa	uncertainty
.21	343.15	88	.0264
.21	358	130	.039
.21	372.97	184	.0552
.21	350.82	107	.0321
.21	363.08	145	.0435
.21	352.81	112	.0336
.21	367.91	164	.0492
.401	329.92	101	.0303
.401	350.78	179	.0537
.401	372.97	306	.0918
.401	336.84	123	.0369
.401	358.11	214	.0642
.401	343.81	150	.045
.401	365.5	255	.0765
.425	323.08	101	.0303
.425	343.88	168	.0504
.425	363.04	262	.0786
.425	330.05	119	.0357
.425	350.87	196	.0588
.425	370.44	311	.0933
.425	336.94	142	.0426
.425	355.94	222	.0666
.674	323.04	124	.0372
.674	343.81	221	.0663
.674	365.71	392	.1176
.674	329.93	153	.0459
.674	350.79	268	.0804
.674	372.88	466	.1398
.674	336.88	188	.0564
.674	358.08	324	.0972
.674	372.9	465	.1395

System: propylene oxide + ethylbenzene; phases: Liquid, Gas
Property: Vapor or sublimation pressure, kPa (Liquid); method: Closed cell (Static) method
Temperature, K	Mole fraction of propylene oxide	Vapor or sublimation pressure, kPa	uncertainty
323.15	.21	65	.0195
333.15	.21	72	.0216
343.15	.21	88	.0264
353.15	.21	114	.0342
363.15	.21	146	.0438
373.15	.21	185	.0555
323.15	.401	78	.0234
333.15	.401	111	.0333
343.15	.401	147	.0441
353.15	.401	189	.0567
363.15	.401	242	.0726
373.15	.401	307	.0921
323.15	.425	101	.0303
333.15	.425	129	.0387
343.15	.425	164	.0492
353.15	.425	208	.0624
363.15	.425	263	.0789
373.15	.425	330	.099
323.15	.674	125	.0375
333.15	.674	167	.0501
343.15	.674	220	.066
353.15	.674	285	.0855
363.15	.674	367	.1101
373.15	.674	469	.1407

System: propylene oxide + 2-methylpentane; phases: Liquid, Gas
Property: Vapor or sublimation pressure, kPa (Liquid); method: Closed cell (Static) method
Mole fraction of propylene oxide	Temperature, K	Vapor or sublimation pressure, kPa	uncertainty
.176	323.11	118	.0354
.176	343.89	210	.063
.176	365.66	367	.1101
.176	329.97	145	.0435
.176	350.78	253	.0759
.176	373.14	438	.1314
.176	336.95	177	.0531
.176	357.95	304	.0912
.277	322.76	135	.0405
.277	343.85	235	.0705
.277	365.55	413	.1239
.277	329.94	167	.0501
.277	351.29	288	.0864
.277	373.1	493	.1479
.277	337.03	193	.0579
.277	358.55	347	.1041
.501	323.04	159	.0477
.501	338.21	244	.0732
.501	363.27	472	.1416
.501	327.99	185	.0555
.501	347.08	311	.0933
.501	368.15	530	.159
.501	331.93	207	.0621
.501	357.8	415	.1245
.501	373.23	595	.1785

System: propylene oxide + 2-methylpentane; phases: Liquid, Gas
Property: Vapor or sublimation pressure, kPa (Liquid); method: Closed cell (Static) method
Temperature, K	Mole fraction of propylene oxide	Vapor or sublimation pressure, kPa	uncertainty
323.15	.176	118	.0354
333.15	.176	158	.0474
343.15	.176	207	.0621
353.15	.176	269	.0807
363.15	.176	345	.1035
373.15	.176	438	.1314
323.15	.277	138	.0414
333.15	.277	177	.0531
343.15	.277	231	.0693
353.15	.277	302	.0906
363.15	.277	389	.1167
373.15	.277	494	.1482
323.15	.501	160	.048
333.15	.501	213	.0639
343.15	.501	281	.0843
353.15	.501	367	.1101
363.15	.501	471	.1413
373.15	.501	595	.1785

System: propylene oxide + 2-methyl-1-pentene; phases: Liquid, Gas
Property: Vapor or sublimation pressure, kPa (Liquid); method: Closed cell (Static) method
Mole fraction of propylene oxide	Temperature, K	Vapor or sublimation pressure, kPa	uncertainty
.179	323.04	106	.03
.179	343.87	197	.03
.179	365.56	342	.03
.179	329.99	132	.03
.179	350.65	235	.03
.179	373.14	411	.03
.179	336.95	162	.03
.179	358.08	284	.03
.263	323.02	118	.03
.263	344	214	.03
.263	365.6	376	.03
.263	329.95	145	.03
.263	350.84	257	.03
.263	373.07	449	.03
.263	336.92	179	.03
.263	358.17	313	.03
.363	323.04	131	.03
.363	343.86	239	.03
.363	365.57	420	.03
.363	329.96	162	.03
.363	350.81	289	.03
.363	373.16	500	.03
.363	336.92	199	.03
.363	358.26	350	.03

System: propylene oxide + 2-methyl-1-pentene; phases: Liquid, Gas
Property: Vapor or sublimation pressure, kPa (Liquid); method: Closed cell (Static) method
Temperature, K	Mole fraction of propylene oxide	Vapor or sublimation pressure, kPa	uncertainty
323.15	.179	106	.0318
333.15	.179	145	.0435
343.15	.179	192	.0576
353.15	.179	250	.075
363.15	.179	322	.0966
373.15	.179	411	.1233
323.15	.263	118	.0354
333.15	.263	159	.0477
343.15	.263	210	.063
353.15	.263	274	.0822
363.15	.263	353	.1059
373.15	.263	450	.135
323.15	.363	132	.0396
333.15	.363	178	.0534
343.15	.363	235	.0705
353.15	.363	307	.0921
363.15	.363	395	.1185
373.15	.363	501	.1503
