Measured thermophysical data. Viscosity measurements of three ionic liquids using the vibrating wire technique
Source: Fluid Phase Equilib., 2013, 10.1016/j.fluid.2013.05.012
Compound 1: 1-hexyl-3-methylimidazolium bis(trifluoromethylsulfonyl)imide, C12H19F6N3O4S2, purity 99%
Compound 2: 1-ethyl-3-methylpyridinium ethylsulfate, C10H17NO4S, purity 99%
Compound 3: 1-ethyl-3-methylimidazolium ethyl sulfate, C8H16N2O4S, purity 99%

System: 1-hexyl-3-methylimidazolium bis(trifluoromethylsulfonyl)imide; phases: Liquid
Fixed: Pressure, kPa = 101.325
Property: Mass density, kg/m3 (Liquid); method: Vibrating tube method
Temperature, K	Mass density, kg/m3	uncertainty
328.15	1344.72	.5
323.15	1349.23	.5
318.16	1353.77	.5
313.15	1358.32	.5
308.16	1362.88	.5
303.15	1367.46	.5
298.16	1372.04	.5
293.16	1376.63	.5
288.15	1381.24	.5
328.15	1344.72	.5
323.16	1349.24	.5
318.15	1353.76	.5
313.15	1358.32	.5
308.16	1362.88	.5
303.16	1367.45	.5
298.16	1372.04	.5
293.16	1376.63	.5

System: 1-hexyl-3-methylimidazolium bis(trifluoromethylsulfonyl)imide; phases: Liquid
Fixed: Pressure, kPa = 101.325
Property: Viscosity, Pa*s (Liquid); method: Vibrating wire viscometry
Temperature, K	Viscosity, Pa*s	uncertainty
293.14	.09027	.0018054
298.18	.0709	.001418
298.18	.07095	.001419
303.13	.05693	.0011386
308.13	.04615	.000923
313.09	.03805	.000761
318.1	.03174	.0006348
323.1	.02673	.0005346

System: 1-ethyl-3-methylpyridinium ethylsulfate; phases: Liquid
Fixed: Pressure, kPa = 101.325
Property: Mass density, kg/m3 (Liquid); method: Vibrating tube method
Temperature, K	Mass density, kg/m3	uncertainty
320.65	1207	.5
318.15	1208.63	.5
315.66	1210.27	.5
313.15	1211.91	.5
310.66	1213.56	.5
308.15	1215.2	.5
305.65	1216.85	.5
303.15	1218.5	.5
300.66	1220.15	.5
298.16	1221.8	.5
295.65	1223.43	.5
293.16	1225.08	.5
293.15	1225.08	.5
295.64	1223.43	.5
298.15	1221.79	.5
300.65	1220.15	.5
303.14	1218.51	.5
305.64	1216.85	.5
308.15	1215.21	.5
310.65	1213.56	.5
313.15	1211.91	.5
315.65	1210.27	.5
318.15	1208.64	.5
320.65	1207	.5

System: 1-ethyl-3-methylpyridinium ethylsulfate; phases: Liquid
Fixed: Pressure, kPa = 101.325
Property: Viscosity, Pa*s (Liquid); method: Vibrating wire viscometry
Temperature, K	Viscosity, Pa*s	uncertainty
293.13	.1815	.00363
298.2	.1338	.002676
298.18	.1337	.002674
303.13	.1021	.002042
308.16	.07918	.0015836
313.14	.06273	.0012546
318.08	.05065	.001013

System: 1-ethyl-3-methylimidazolium ethyl sulfate; phases: Liquid
Fixed: Pressure, kPa = 101.325
Property: Mass density, kg/m3 (Liquid); method: Vibrating tube method
Temperature, K	Mass density, kg/m3	uncertainty
288.16	1245.23	.5
290.65	1243.55	.5
293.15	1241.85	.5
295.65	1240.15	.5
298.15	1238.45	.5
300.65	1236.76	.5
303.15	1235.06	.5
305.65	1233.38	.5
308.15	1231.69	.5
310.65	1230.01	.5
313.14	1228.32	.5
315.65	1226.63	.5
318.15	1224.95	.5
320.64	1223.27	.5
323.14	1221.6	.5
325.64	1219.92	.5
328.15	1218.26	.5
328.15	1218.26	.5
325.65	1219.92	.5
323.15	1221.6	.5
320.64	1223.28	.5
318.15	1224.95	.5
315.65	1226.64	.5
313.14	1228.32	.5
310.64	1230.01	.5
308.15	1231.69	.5
305.65	1233.38	.5
303.15	1235.08	.5
300.65	1236.77	.5
298.15	1238.47	.5
295.65	1240.17	.5
293.14	1241.85	.5
290.64	1243.55	.5
288.15	1245.23	.5

System: 1-ethyl-3-methylimidazolium ethyl sulfate; phases: Liquid
Fixed: Pressure, kPa = 101.325
Property: Viscosity, Pa*s (Liquid); method: Vibrating wire viscometry
Temperature, K	Viscosity, Pa*s	uncertainty
293.14	.1282	.002564
298.2	.09863	.0019726
298.19	.09887	.0019774
303.16	.07783	.0015566
308.19	.06254	.0012508
313.14	.0511	.001022
318.14	.04222	.0008444
323.1	.03537	.0007074
