Measured thermophysical data. Measurement and modeling of mefenamic acid solubility in supercritical carbon dioxide
Source: Fluid Phase Equilib., 2011, 10.1016/j.fluid.2011.09.031
Compound 1: mefenamic acid, C15H15NO2
Compound 2: piroxicam, C15H13N3O4S, purity 96.2%
Compound 3: carbon dioxide, CO2, purity 99.8%

System: carbon dioxide + piroxicam; phases: Fluid (supercritical or subcritical phases), Crystal
Property: Mole fraction of piroxicam (Fluid (supercritical or subcritical phases)); method: Static solubility measurement
Temperature, K	Pressure, kPa	Mole fraction of piroxicam	uncertainty
312.15	10000	.0000121	.000000605
312.15	13000	.0000192	.00000096
312.15	16000	.000029199	.00000145995
312.15	19000	.000042298	.0000021149

System: mefenamic acid + carbon dioxide; phases: Fluid (supercritical or subcritical phases), Crystal
Property: Mole fraction of mefenamic acid (Fluid (supercritical or subcritical phases)); method: Static solubility measurement
Temperature, K	Pressure, kPa	Mole fraction of mefenamic acid	uncertainty
308.15	16000	.00020096	.000010048
308.15	20000	.0003209	.000016045
308.15	24000	.00045579	.0000227895
308.15	28000	.00066256	.000033128
308.15	32000	.00089021	.0000445105
308.15	36000	.00120854	.000060427
308.15	40000	.00140801	.0000704005
318.15	16000	.00016197	.0000080985
318.15	20000	.00039085	.0000195425
318.15	24000	.00065357	.0000326785
318.15	28000	.00098603	.0000493015
318.15	32000	.00132823	.0000664115
318.15	36000	.0017868	.00008934
318.15	40000	.00271262	.000135631
328.15	16000	.00012298	.000006149
328.15	20000	.00038885	.0000194425
328.15	24000	.00072547	.0000362735
328.15	28000	.00120854	.000060427
328.15	32000	.00200597	.0001002985
328.15	36000	.00280213	.0001401065
328.15	40000	.00377569	.0001887845
338.15	16000	.00008309	.0000041545
338.15	20000	.00037486	.000018743
338.15	24000	.00086924	.000043462
338.15	28000	.00163731	.0000818655
338.15	32000	.00255346	.000127673
338.15	36000	.00411301	.0002056505
338.15	40000	.00594445	.0002972225
