Measured thermophysical data. Phase behavior of carbon dioxide + medroxyprogesterone acetate  system at high pressures
Source: Fluid Phase Equilib., 2013, 10.1016/j.fluid.2013.03.019
Compound 1: 17.alpha.-acetoxy-6.alpha.-methylprogesterone, C24H34O4, purity 97%
Compound 2: carbon dioxide, CO2, purity 99.9%

System: 17.alpha.-acetoxy-6.alpha.-methylprogesterone + carbon dioxide; phases: Fluid (supercritical or subcritical phases), Crystal
Property: Mole fraction of 17.alpha.-acetoxy-6.alpha.-methylprogesterone (Fluid (supercritical or subcritical phases)); method: Phase equilibration
Temperature, K	Pressure, kPa	Mole fraction of 17.alpha.-acetoxy-6.alpha.-methylprogesterone	uncertainty
303.15	14587	.00009	.00000171
313.15	16803	.00009	.00000171
323.15	18647	.00009	.00000171
333.15	20247	.00009	.00000171
343.15	21774	.00009	.00000171
303.15	13897	.000074	.000001406
313.15	15630	.000074	.000001406
323.15	17700	.000074	.000001406
333.15	19267	.000074	.000001406
343.15	20440	.000074	.000001406
303.15	12713	.000064	.000001216
313.15	14847	.000064	.000001216
323.15	16690	.000064	.000001216
333.15	18374	.000064	.000001216
343.15	19337	.000064	.000001216
303.15	11027	.000054	.000001026
313.15	13420	.000054	.000001026
323.15	15646	.000054	.000001026
333.15	17634	.000054	.000001026
343.15	18710	.000054	.000001026
303.15	9284	.00004	.00000076
313.15	11413	.00004	.00000076
323.15	13797	.00004	.00000076
333.15	15464	.00004	.00000076
343.15	17347	.00004	.00000076

System: 17.alpha.-acetoxy-6.alpha.-methylprogesterone + carbon dioxide; phases: Liquid, Crystal, Gas
Property: Vapor or sublimation pressure, kPa (Liquid); method: Closed cell (Static) method
Temperature, K	Vapor or sublimation pressure, kPa	uncertainty
303.15	7163	10
