Measured thermophysical data. Solid-liquid phase equilibria in binary mixtures of functionalized ionic liquids with sugar alcohols: New experimental data and modelling
Source: Fluid Phase Equilib., 2015, 10.1016/j.fluid.2015.06.002
Compound 1: 1-allyl-3-methylimidazolium dicyanamide, C9H11N5, purity 98%
Compound 2: 1-(2-hydroxyethyl)-3-methyl-imidazolium dicyanamide, C8H11N5O, purity 98%
Compound 3: 1-(2-chloroethyl)-3-methylimidazolium dicyanamide, C8H10ClN5, purity 95%
Compound 4: meso-erythritol, C4H10O4, purity 99%
Compound 5: xylitol, C5H12O5, purity 99%
Compound 6: D-sorbitol, C6H14O6, purity 99%
Compound 7: 1-(3-cyanopropyl)-3-methylimidazolium cyanocyanamide, C10H12N6, purity 98.5%

System: meso-erythritol; phases: Crystal, Liquid, Air at 1 atmosphere
Property: Normal melting temperature, K (Crystal); method: Visual observation
Normal melting temperature, K	uncertainty
390.5	.1

System: meso-erythritol; phases: Crystal, Liquid, Air at 1 atmosphere
Property: Normal melting temperature, K (Crystal); method: DSC/DTA
Normal melting temperature, K	uncertainty
391.8	.1

System: meso-erythritol; phases: Crystal, Liquid, Air at 1 atmosphere
Property: Molar enthalpy of transition or fusion, kJ/mol (Crystal); method: DSC
Molar enthalpy of transition or fusion, kJ/mol	uncertainty
39.7	.1

System: xylitol; phases: Crystal, Liquid, Air at 1 atmosphere
Property: Normal melting temperature, K (Crystal); method: Visual observation
Normal melting temperature, K	uncertainty
367.2	.1

System: xylitol; phases: Crystal, Liquid, Air at 1 atmosphere
Property: Normal melting temperature, K (Crystal); method: DSC/DTA
Normal melting temperature, K	uncertainty
367	.1

System: xylitol; phases: Crystal, Liquid, Air at 1 atmosphere
Property: Molar enthalpy of transition or fusion, kJ/mol (Crystal); method: DSC
Molar enthalpy of transition or fusion, kJ/mol	uncertainty
35	.1

System: D-sorbitol; phases: Crystal, Liquid, Air at 1 atmosphere
Property: Normal melting temperature, K (Crystal); method: Visual observation
Normal melting temperature, K	uncertainty
371.7	.1

System: D-sorbitol; phases: Crystal, Liquid, Air at 1 atmosphere
Property: Normal melting temperature, K (Crystal); method: DSC/DTA
Normal melting temperature, K	uncertainty
370.2	.1

System: D-sorbitol; phases: Crystal, Liquid, Air at 1 atmosphere
Property: Molar enthalpy of transition or fusion, kJ/mol (Crystal); method: DSC
Molar enthalpy of transition or fusion, kJ/mol	uncertainty
30.5	.1

System: meso-erythritol + 1-allyl-3-methylimidazolium dicyanamide; phases: Liquid, Crystal
Fixed: Pressure, kPa = 101
Property: Solid-liquid equilibrium temperature, K (Liquid); method: Visual observation
Mole fraction of meso-erythritol	Solid-liquid equilibrium temperature, K	uncertainty
.9199	387.1	.1
.8222	381.9	.1
.7081	376.5	.1
.6021	369.3	.1
.5366	363.6	.1
.4445	355.2	.1
.3216	339	.1
.2147	323.7	.1
.1351	309.9	.1

System: meso-erythritol + 1-(2-hydroxyethyl)-3-methyl-imidazolium dicyanamide; phases: Liquid, Crystal
Fixed: Pressure, kPa = 101
Property: Solid-liquid equilibrium temperature, K (Liquid); method: Visual observation
Mole fraction of meso-erythritol	Solid-liquid equilibrium temperature, K	uncertainty
.9527	389.6	.1
.8841	387.9	.1
.8216	385.9	.1
.7933	385.1	.1
.7044	379.8	.1
.6963	379.1	.1
.6395	375.4	.1
.5479	368.3	.1
.4895	362.9	.1
.4041	354.5	.1
.3012	342.8	.1
.2576	337	.1
.1954	328.3	.1
.1367	319.1	.1

System: 1-(2-chloroethyl)-3-methylimidazolium dicyanamide + meso-erythritol; phases: Liquid, Crystal
Fixed: Pressure, kPa = 101
Property: Solid-liquid equilibrium temperature, K (Liquid); method: Visual observation
Mole fraction of meso-erythritol	Solid-liquid equilibrium temperature, K	uncertainty
.9104	388.6	.1
.8354	385.4	.1
.7801	382.9	.1
.7059	379.4	.1
.6027	372.5	.1
.4888	362.1	.1
.398	351.6	.1
.3212	342.4	.1
.2457	330.3	.1
.1147	309.5	.1

System: xylitol + 1-allyl-3-methylimidazolium dicyanamide; phases: Liquid, Crystal 1
Fixed: Pressure, kPa = 101
Property: Solid-liquid equilibrium temperature, K (Liquid); method: Visual observation
Mole fraction of xylitol	Solid-liquid equilibrium temperature, K	uncertainty
.9139	365.2	.1
.8339	363	.1
.7534	359.1	.1
.6318	351.8	.1
.5414	345.3	.1
.4341	336.4	.1
.3347	324.4	.1
.2157	305.6	.1

System: xylitol + 1-(2-hydroxyethyl)-3-methyl-imidazolium dicyanamide; phases: Liquid, Crystal 1
Fixed: Pressure, kPa = 101
Property: Solid-liquid equilibrium temperature, K (Liquid); method: Visual observation
Mole fraction of xylitol	Solid-liquid equilibrium temperature, K	uncertainty
.9002	366	.1
.8828	365.2	.1
.7775	360.5	.1
.6666	355	.1
.6074	351.8	.1
.5033	345.9	.1
.4209	339.4	.1
.3052	328.1	.1
.2314	316.4	.1
.1636	304.4	.1
.0946	290.5	.1

System: 1-(2-chloroethyl)-3-methylimidazolium dicyanamide + xylitol; phases: Liquid, Crystal 1
Fixed: Pressure, kPa = 101
Property: Solid-liquid equilibrium temperature, K (Liquid); method: Visual observation
Mole fraction of xylitol	Solid-liquid equilibrium temperature, K	uncertainty
.9055	365.6	.1
.7655	360.2	.1
.6729	355.3	.1
.5876	350.2	.1
.4976	343.2	.1
.3907	333.3	.1
.3066	322.4	.1
.1911	303.7	.1

System: D-sorbitol + 1-allyl-3-methylimidazolium dicyanamide; phases: Liquid, Crystal
Fixed: Pressure, kPa = 101
Property: Solid-liquid equilibrium temperature, K (Liquid); method: Visual observation
Mole fraction of D-sorbitol	Solid-liquid equilibrium temperature, K	uncertainty
.9204	369.5	.1
.8219	365.8	.1
.7112	359.8	.1
.6238	353.9	.1
.5307	348.1	.1
.4344	340.1	.1
.3235	329.4	.1
.2137	309.9	.1
.1295	296.8	.1

System: D-sorbitol + 1-(2-hydroxyethyl)-3-methyl-imidazolium dicyanamide; phases: Liquid, Crystal
Fixed: Pressure, kPa = 101
Property: Solid-liquid equilibrium temperature, K (Liquid); method: Visual observation
Mole fraction of D-sorbitol	Solid-liquid equilibrium temperature, K	uncertainty
.8963	370.1	.1
.8629	368.6	.1
.802	366	.1
.702	360.8	.1
.5919	355.5	.1
.4997	349.2	.1
.4057	341.4	.1
.3218	333.5	.1
.1977	313.6	.1

System: 1-(2-chloroethyl)-3-methylimidazolium dicyanamide + D-sorbitol; phases: Liquid, Crystal
Fixed: Pressure, kPa = 101
Property: Solid-liquid equilibrium temperature, K (Liquid); method: Visual observation
Mole fraction of D-sorbitol	Solid-liquid equilibrium temperature, K	uncertainty
.9056	370	.1
.7917	365.5	.1
.7195	360.9	.1
.6066	354.9	.1
.4998	348.2	.1
.397	339.6	.1
.3153	331.7	.1
.1645	304.2	.1

System: meso-erythritol + 1-(3-cyanopropyl)-3-methylimidazolium cyanocyanamide; phases: Liquid, Crystal
Fixed: Pressure, kPa = 101
Property: Solid-liquid equilibrium temperature, K (Liquid); method: Visual observation
Mole fraction of meso-erythritol	Solid-liquid equilibrium temperature, K	uncertainty
.9355	389.6	.1
.8756	388.5	.1
.7808	385.1	.1
.6915	379.9	.1
.5644	371.8	.1
.4581	361.8	.1
.4218	358.4	.1
.3286	347.9	.1
.2478	337.4	.1
.169	326.5	.1

System: xylitol + 1-(3-cyanopropyl)-3-methylimidazolium cyanocyanamide; phases: Liquid, Crystal
Fixed: Pressure, kPa = 101
Property: Solid-liquid equilibrium temperature, K (Liquid); method: Visual observation
Mole fraction of xylitol	Solid-liquid equilibrium temperature, K	uncertainty
.9183	366.5	.1
.8761	365	.1
.7432	359.9	.1
.6049	353.2	.1
.4724	345.5	.1
.4395	342.5	.1
.2858	327.5	.1

System: D-sorbitol + 1-(3-cyanopropyl)-3-methylimidazolium cyanocyanamide; phases: Liquid, Crystal
Fixed: Pressure, kPa = 101
Property: Solid-liquid equilibrium temperature, K (Liquid); method: Visual observation
Mole fraction of D-sorbitol	Solid-liquid equilibrium temperature, K	uncertainty
.9195	370	.1
.8395	368.5	.1
.7532	366.3	.1
.6598	361.5	.1
.5509	355.2	.1
.4315	347.3	.1
.334	337.4	.1
.2928	331.2	.1
.176	315.4	.1
