Measured thermophysical data. Effect of imidazolium-based ionic liquid on vapor-liquid equilibria of 2-propanol + acetonitrile binary system at 101.3 kPa
Source: Fluid Phase Equilib., 2016, 10.1016/j.fluid.2015.10.035
Compound 1: 2-propanol, C3H8O, purity 99.6%
Compound 2: acetonitrile, C2H3N, purity 99.8%
Compound 3: 1-ethyl-3-methylimidazolium tetrafluoroborate, C6H11BF4N2
Compound 4: 1-butyl-3-methylimidazolium tetrafluoroborate, C8H15BF4N2

System: 2-propanol; phases: Liquid
Fixed: Pressure, kPa = 101.325
Property: Mass density, kg/m3 (Liquid); method: Vibrating tube method
Temperature, K	Mass density, kg/m3	uncertainty
293.15	786	.2

System: 2-propanol; phases: Liquid
Fixed: Pressure, kPa = 101.325
Property: Refractive index (Na D-line) (Liquid); method: Standard Abbe refractometry
Temperature, K	Refractive index (Na D-line)	uncertainty
293.15	1.3773	.0001

System: 2-propanol; phases: Liquid, Gas
Property: Boiling temperature at pressure P, K (Liquid); method: Closed cell (Static) method
Pressure, kPa	Boiling temperature at pressure P, K	uncertainty
101.3	355.49	.05

System: acetonitrile; phases: Liquid
Fixed: Pressure, kPa = 101.325
Property: Mass density, kg/m3 (Liquid); method: Vibrating tube method
Temperature, K	Mass density, kg/m3	uncertainty
293.15	782.1	.2

System: acetonitrile; phases: Liquid
Fixed: Pressure, kPa = 101.325
Property: Refractive index (Na D-line) (Liquid); method: Standard Abbe refractometry
Temperature, K	Refractive index (Na D-line)	uncertainty
293.15	1.3439	.0001

System: acetonitrile; phases: Liquid, Gas
Property: Boiling temperature at pressure P, K (Liquid); method: Closed cell (Static) method
Pressure, kPa	Boiling temperature at pressure P, K	uncertainty
101.3	354.59	.05

System: 2-propanol + acetonitrile; phases: Liquid, Gas
Fixed: Pressure, kPa = 101.3
Property: Boiling temperature at pressure P, K (Liquid); method: Ebulliometric method (Recirculating still)
Mole fraction of 2-propanol	Boiling temperature at pressure P, K	uncertainty
0	354.59	.05
.053	352.6	.05
.096	351.52	.05
.193	349.83	.05
.298	349	.05
.399	348.48	.05
.449	348.4	.05
.501	348.43	.05
.576	348.63	.05
.609	348.75	.05
.708	349.29	.05
.81	350.42	.05
.9	352.14	.05
.965	353.03	.05
1	355.49	.05

System: 2-propanol + acetonitrile; phases: Gas, Liquid
Fixed: Pressure, kPa = 101.3
Property: Mole fraction of 2-propanol (Gas); method: Chromatography
Mole fraction of 2-propanol	Mole fraction of 2-propanol	uncertainty
0	0	.002
.053	.102	.002
.096	.172	.002
.193	.281	.002
.298	.366	.002
.399	.427	.002
.449	.455	.002
.501	.481	.002
.576	.53	.002
.609	.539	.002
.708	.601	.002
.81	.688	.002
.9	.793	.002
.965	.878	.002
1	1	.002

System: 2-propanol + acetonitrile + 1-ethyl-3-methylimidazolium tetrafluoroborate; phases: Liquid, Gas
Fixed: Pressure, kPa = 101.3
Property: Mole fraction of acetonitrile (Liquid); method: Chromatography
Property: Mole fraction of 2-propanol (Gas); method: Chromatography
Property: Mole fraction of acetonitrile (Gas); method: Chromatography
Temperature, K	Mole fraction of 2-propanol	Mole fraction of acetonitrile	uncertainty	Mole fraction of 2-propanol	uncertainty	Mole fraction of acetonitrile	uncertainty
354.63	.0963	.8037	.002	.202	.002	.798	.002
353.23	.7704	.1296	.002	.845	.002	.155	.002
358.75	.0792	.7208	.002	.22	.002	.78	.002
356.44	.1632	.6368	.002	.359	.002	.641	.002
354.29	.2424	.5576	.002	.464	.002	.536	.002
353.16	.3312	.4688	.002	.551	.002	.449	.002
352.68	.4048	.3952	.002	.624	.002	.376	.002
352.56	.4544	.3456	.002	.665	.002	.335	.002
352.16	.4872	.3128	.002	.69	.002	.31	.002
352.93	.5696	.2304	.002	.772	.002	.228	.002
353.39	.6408	.1592	.002	.831	.002	.169	.002
352.57	.171	.729	.002	.312	.002	.688	.002
354.23	.7144	.0856	.002	.907	.002	.093	.002
365.85	.0609	.6391	.002	.198	.002	.802	.002
361.83	.1246	.5754	.002	.352	.002	.648	.002
359.08	.1995	.5005	.002	.476	.002	.524	.002
356.63	.2786	.4214	.002	.586	.002	.414	.002
355.55	.3479	.3521	.002	.657	.002	.343	.002
355.52	.3542	.3458	.002	.658	.002	.342	.002
354.73	.4186	.2814	.002	.728	.002	.272	.002
354.65	.4865	.2135	.002	.796	.002	.204	.002
354.44	.5677	.1323	.002	.86	.002	.14	.002
351.45	.2772	.6228	.002	.426	.002	.574	.002
354.9	.6321	.0679	.002	.929	.002	.071	.002
350.8	.369	.531	.002	.505	.002	.495	.002
350.56	.4689	.4311	.002	.578	.002	.422	.002
350.78	.5157	.3843	.002	.622	.002	.378	.002
350.98	.5571	.3429	.002	.644	.002	.356	.002
351.48	.6345	.2655	.002	.703	.002	.297	.002
352.2	.7173	.1827	.002	.784	.002	.216	.002

System: 2-propanol + acetonitrile + 1-butyl-3-methylimidazolium tetrafluoroborate; phases: Liquid, Gas
Fixed: Pressure, kPa = 101.3
Property: Mole fraction of acetonitrile (Liquid); method: Chromatography
Property: Mole fraction of 2-propanol (Gas); method: Chromatography
Property: Mole fraction of acetonitrile (Gas); method: Chromatography
Temperature, K	Mole fraction of 2-propanol	Mole fraction of acetonitrile	uncertainty	Mole fraction of 2-propanol	uncertainty	Mole fraction of acetonitrile	uncertainty
355.23	.1089	.7911	.002	.229	.002	.771	.002
353.89	.8244	.0756	.002	.895	.002	.105	.002
361.12	.0968	.7032	.002	.229	.002	.771	.002
358.96	.1872	.6128	.002	.38	.002	.62	.002
356.64	.28	.52	.002	.498	.002	.502	.002
355.4	.4032	.3968	.002	.606	.002	.394	.002
354.45	.4608	.3392	.002	.664	.002	.336	.002
354.27	.4976	.3024	.002	.699	.002	.301	.002
354.04	.5328	.2672	.002	.725	.002	.275	.002
354.25	.6032	.1968	.002	.794	.002	.206	.002
354.65	.6688	.1312	.002	.843	.002	.157	.002
353.3	.1863	.7137	.002	.319	.002	.681	.002
355.45	.744	.056	.002	.934	.002	.066	.002
370.13	.0805	.6195	.002	.23	.002	.77	.002
366.01	.1575	.5425	.002	.392	.002	.608	.002
363.2	.2401	.4599	.002	.525	.002	.475	.002
361	.315	.385	.002	.615	.002	.385	.002
359.43	.3934	.3066	.002	.681	.002	.319	.002
358.86	.441	.259	.002	.726	.002	.274	.002
358.05	.4774	.2226	.002	.772	.002	.228	.002
358.24	.5271	.1729	.002	.82	.002	.18	.002
357.85	.5915	.1085	.002	.873	.002	.127	.002
351.75	.3186	.5814	.002	.478	.002	.522	.002
357.43	.6461	.0539	.002	.939	.002	.061	.002
351.06	.4212	.4788	.002	.551	.002	.449	.002
350.99	.5193	.3807	.002	.613	.002	.387	.002
350.95	.5517	.3483	.002	.658	.002	.342	.002
351.13	.5967	.3033	.002	.676	.002	.324	.002
351.63	.6795	.2205	.002	.753	.002	.247	.002
352.7	.7596	.1404	.002	.816	.002	.184	.002
