Measured thermophysical data. Anomalous nucleation near a fluid phase boundary created by a rapid heat pulse
Source: Fluid Phase Equilib., 2016, 10.1016/j.fluid.2015.12.046
Compound 1: methane, CH4, purity 99.999%
Compound 2: ethane, C2H6, purity 99%
Compound 3: n-pentane, C5H12, purity 99%
Compound 4: n-hexane, C6H14, purity 98%
Compound 5: n-octane, C8H18, purity 99%
Compound 6: n-decane, C10H22, purity 99%

System: methane + n-octane; phases: Gas, Liquid
Fixed: Mole fraction of methane = .72
Property: Vapor or sublimation pressure, kPa (Gas); method: Pulsed heating
Temperature, K	Vapor or sublimation pressure, kPa	uncertainty
295.35	25230	
322.75	26060	
333.25	26140	
343.45	26200	
347.55	26230	
352.35	26210	
363.55	26030	
372.35	25750	
396.85	24590	
421.45	22680	

System: methane + n-octane; phases: Gas, Liquid
Fixed: Mole fraction of methane = .72
Property: Vapor or sublimation pressure, kPa (Gas); method: depressurization
Temperature, K	Vapor or sublimation pressure, kPa	uncertainty
296.15	25210	
323.05	26100	
347.95	26240	
372.45	25720	
397.05	24540	

System: methane + n-decane; phases: Gas, Liquid
Fixed: Mole fraction of methane = .86
Property: Vapor or sublimation pressure, kPa (Gas); method: Pulsed heating
Temperature, K	Vapor or sublimation pressure, kPa	uncertainty
295.45	28230	
322.55	28960	
347.45	29270	
372.75	29160	
397.05	28680	
421.75	27610	

System: ethane + n-pentane; phases: Gas, Liquid
Fixed: Mole fraction of ethane = .42
Property: Vapor or sublimation pressure, kPa (Gas); method: Pulsed heating
Temperature, K	Vapor or sublimation pressure, kPa	uncertainty
297.75	1410	
322.75	2090	
347.45	2900	
372.05	3760	
396.55	4840	

System: ethane + n-pentane; phases: Gas, Liquid
Fixed: Mole fraction of ethane = .56
Property: Vapor or sublimation pressure, kPa (Gas); method: Pulsed heating
Temperature, K	Vapor or sublimation pressure, kPa	uncertainty
297.15	1950	
322.75	2940	
347.35	4070	
372.15	5230	
396.55	6290	
400.65	6320	
402.55	6370	
404.35	6320	
407.05	6290	
408.25	6230	
