Measured thermophysical data. Vapor-liquid equilibria of ethylene (C2H4) + decafluorobutane (C4F10) at 268 to 298 K from experiment, molecular simulation and the Peng-Robinson equation of state
Source: Fluid Phase Equilib., 2012, 10.1016/j.fluid.2012.08.023
Compound 1: decafluorobutane, C4F10
Compound 2: ethene, C2H4

System: decafluorobutane; phases: Liquid, Gas
Property: Vapor or sublimation pressure, kPa (Liquid); method: Closed cell (Static) method
Temperature, K	Vapor or sublimation pressure, kPa	uncertainty
268.13	91	5.8
278.36	134.6	5.8
288.16	192.9	5.8
298.13	268.8	5.8

System: ethene; phases: Liquid, Gas
Property: Vapor or sublimation pressure, kPa (Liquid); method: Closed cell (Static) method
Temperature, K	Vapor or sublimation pressure, kPa	uncertainty
268.13	3648.5	5.8
278.36	4611.2	5.8

System: ethene + decafluorobutane; phases: Liquid, Gas
Property: Vapor or sublimation pressure, kPa (Liquid); method: Closed cell (Static) method
Mole fraction of ethene	Temperature, K	Vapor or sublimation pressure, kPa	uncertainty
0	268.13	91	5.8
.066	268.13	434	5.8
.127	268.13	763.5	5.8
.194	268.13	1114.8	5.8
.283	268.13	1480.8	5.8
.371	268.13	1791	5.8
.463	268.13	2078.9	5.8
.575	268.13	2377.8	5.8
.666	268.13	2595.3	5.8
.775	268.13	2859.5	5.8
.851	268.13	3062.1	5.8
.908	268.13	3247.1	5.8
.952	268.13	3455.6	5.8
1	268.13	3648.5	5.8
0	278.36	134.6	5.8
.049	278.36	418.1	5.8
.105	278.36	764.6	5.8
.164	278.36	1139.3	5.8
.216	278.36	1414.4	5.8
.284	278.36	1732.5	5.8
.351	278.36	2026.1	5.8
.427	278.36	2322.2	5.8
.511	278.36	2616.7	5.8
.586	278.36	2862.8	5.8
.685	278.36	3179.6	5.8
.771	278.36	3459.4	5.8
.826	278.36	3655.1	5.8
.919	278.36	4077.2	5.8
1	278.36	4611.2	5.8
0	288.16	192.9	5.8
.045	288.16	485.4	5.8
.11	288.16	904.7	5.8
.169	288.16	1300.8	5.8
.222	288.16	1643.1	5.8
.286	288.16	1999.6	5.8
.351	288.16	2316.5	5.8
.406	288.16	2573.9	5.8
.449	288.16	2764.3	5.8
.499	288.16	2977.2	5.8
.586	288.16	3324.5	5.8
.672	288.16	3667.6	5.8
.739	288.16	3944.2	5.8
.916	288.16	4874.5	5.8
0	298.13	268.8	5.8
.044	298.13	570.9	5.8
.11	298.13	1051.4	5.8
.174	298.13	1557.5	5.8
.268	298.13	2156.8	5.8
.329	298.13	2511	5.8
.401	298.13	2902.6	5.8
.483	298.13	3317.6	5.8
.564	298.13	3703.4	5.8
.614	298.13	4083.4	5.8
.698	298.13	4499.9	5.8
.781	298.13	4931.4	5.8
.823	298.13	5115.2	5.8

System: ethene + decafluorobutane; phases: Gas, Liquid
Property: Mole fraction of ethene (Gas); method: Chromatography
Mole fraction of ethene	Temperature, K	Mole fraction of ethene	uncertainty
0	268.13	0	.0058
.066	268.13	.744	.0058
.127	268.13	.848	.0058
.194	268.13	.888	.0058
.283	268.13	.911	.0058
.371	268.13	.926	.0058
.463	268.13	.931	.0058
.575	268.13	.941	.0058
.666	268.13	.947	.0058
.775	268.13	.955	.0058
.851	268.13	.957	.0058
.908	268.13	.967	.0058
.952	268.13	.981	.0058
1	268.13	1	.0058
0	278.36	0	.0058
.049	278.36	.636	.0058
.105	278.36	.794	.0058
.164	278.36	.857	.0058
.216	278.36	.881	.0058
.284	278.36	.9	.0058
.351	278.36	.911	.0058
.427	278.36	.91	.0058
.511	278.36	.92	.0058
.586	278.36	.927	.0058
.685	278.36	.927	.0058
.771	278.36	.935	.0058
.826	278.36	.941	.0058
.919	278.36	.957	.0058
1	278.36	1	.0058
0	288.16	0	.0058
.045	288.16	.589	.0058
.11	288.16	.739	.0058
.169	288.16	.807	.0058
.222	288.16	.847	.0058
.286	288.16	.871	.0058
.351	288.16	.886	.0058
.406	288.16	.896	.0058
.449	288.16	.901	.0058
.499	288.16	.907	.0058
.586	288.16	.916	.0058
.672	288.16	.921	.0058
.739	288.16	.927	.0058
.916	288.16	.937	.0058
0	298.13	0	.0058
.044	298.13	.503	.0058
.11	298.13	.706	.0058
.174	298.13	.793	.0058
.268	298.13	.829	.0058
.329	298.13	.852	.0058
.401	298.13	.872	.0058
.483	298.13	.887	.0058
.564	298.13	.888	.0058
.614	298.13	.896	.0058
.698	298.13	.904	.0058
.781	298.13	.913	.0058
.823	298.13	.916	.0058
