Measured thermophysical data. Liquid-liquid equilibria of water + acetic acid + 2-ethyl hexyl acetate ternary system
Source: Fluid Phase Equilib., 2014, 10.1016/j.fluid.2014.07.032
Compound 1: water, H2O, purity 99.8%
Compound 2: acetic acid, C2H4O2, purity 99.8%
Compound 3: 2-ethylhexyl acetate, C10H20O2, purity 99%

System: water; phases: Liquid
Fixed: Pressure, kPa = 101.325
Property: Mass density, kg/m3 (Liquid); method: Vibrating tube method
Temperature, K	Mass density, kg/m3	uncertainty
298.15	998.21	.01

System: water; phases: Liquid
Fixed: Pressure, kPa = 101.325
Property: Refractive index (Na D-line) (Liquid); method: Standard Abbe refractometry
Temperature, K	Refractive index (Na D-line)	uncertainty
298.15	1.3324	.00001

System: water; phases: Liquid, Gas
Property: Normal boiling temperature, K (Liquid); method: Ebulliometric method (Recirculating still)
Normal boiling temperature, K	uncertainty
373.2	.1

System: acetic acid; phases: Liquid
Fixed: Pressure, kPa = 101.325
Property: Mass density, kg/m3 (Liquid); method: Vibrating tube method
Temperature, K	Mass density, kg/m3	uncertainty
298.15	1049.42	.01

System: acetic acid; phases: Liquid
Fixed: Pressure, kPa = 101.325
Property: Refractive index (Na D-line) (Liquid); method: Standard Abbe refractometry
Temperature, K	Refractive index (Na D-line)	uncertainty
298.15	1.3713	.00001

System: acetic acid; phases: Liquid, Gas
Property: Normal boiling temperature, K (Liquid); method: Ebulliometric method (Recirculating still)
Normal boiling temperature, K	uncertainty
391.2	.1

System: 2-ethylhexyl acetate; phases: Liquid
Fixed: Pressure, kPa = 101.325
Property: Mass density, kg/m3 (Liquid); method: Vibrating tube method
Temperature, K	Mass density, kg/m3	uncertainty
298.15	872.25	.01

System: 2-ethylhexyl acetate; phases: Liquid
Fixed: Pressure, kPa = 101.325
Property: Refractive index (Na D-line) (Liquid); method: Standard Abbe refractometry
Temperature, K	Refractive index (Na D-line)	uncertainty
298.15	1.4205	.00001

System: 2-ethylhexyl acetate; phases: Liquid, Gas
Property: Normal boiling temperature, K (Liquid); method: Ebulliometric method (Recirculating still)
Normal boiling temperature, K	uncertainty
472.25	.1

System: acetic acid + 2-ethylhexyl acetate + water; phases: Liquid mixture 1, Liquid mixture 2
Fixed: Pressure, kPa = 101
Property: Mass fraction of acetic acid (Liquid mixture 1); method: Titration method
Temperature, K	Mass fraction of water	Mass fraction of acetic acid	uncertainty
298.15	.0028	0	.001
298.15	.0209	.1245	.001
298.15	.037	.2232	.001
298.15	.0586	.3225	.001
298.15	.0872	.4068	.001
298.15	.1219	.4797	.001
298.15	.1625	.5412	.001
298.15	.1999	.5897	.001
298.15	.2601	.6361	.001
298.15	.378	.5953	.001
298.15	.4819	.5084	.001
298.15	.5854	.41	.001
298.15	.6881	.3098	.001
298.15	.7866	.2116	.001
298.15	.8929	.1061	.001
298.15	.9991	0	.001
308.15	.0056	0	.001
308.15	.021	.1153	.001
308.15	.0382	.2227	.001
308.15	.0607	.3227	.001
308.15	.0926	.4049	.001
308.15	.1288	.4781	.001
308.15	.1686	.5356	.001
308.15	.2047	.5828	.001
308.15	.2593	.6267	.001
308.15	.3757	.5932	.001
308.15	.4831	.5056	.001
308.15	.5859	.4092	.001
308.15	.6857	.3123	.001
308.15	.7908	.2074	.001
308.15	.8934	.1054	.001
308.15	.9991	0	.001
318.15	.0204	0	.001
318.15	.0295	.1195	.001
318.15	.0545	.2201	.001
318.15	.0661	.325	.001
318.15	.0954	.404	.001
318.15	.1359	.4757	.001
318.15	.1731	.5293	.001
318.15	.2116	.5805	.001
318.15	.2469	.6123	.001
318.15	.3782	.5883	.001
318.15	.4848	.5016	.001
318.15	.5858	.4073	.001
318.15	.6836	.3115	.001
318.15	.7853	.2104	.001
318.15	.8925	.1036	.001
318.15	.9975	0	.001

System: acetic acid + 2-ethylhexyl acetate + water; phases: Liquid mixture 2, Liquid mixture 1
Property: Mass fraction of water (Liquid mixture 2); method: Chromatography
Property: Mass fraction of water (Liquid mixture 1); method: Chromatography
Property: Mass fraction of acetic acid (Liquid mixture 1); method: Chromatography
Temperature, K	Pressure, kPa	Mass fraction of acetic acid	Mass fraction of water	uncertainty	Mass fraction of water	uncertainty	Mass fraction of acetic acid	uncertainty
298.15	101.325	.0269	.0086	.002	.8525	.002	.1447	.002
308.15	101.325	.0823	.0206	.002	.6532	.002	.3385	.002
308.15	101.325	.1089	.0228	.002	.5797	.002	.4112	.002
308.15	101.325	.1227	.0257	.002	.5108	.002	.4776	.002
308.15	101.325	.1461	.0289	.002	.4622	.002	.5219	.002
308.15	101.325	.1667	.0315	.002	.4205	.002	.557	.002
308.15	101.325	.2159	.0398	.002	.3291	.002	.6133	.002
318.15	101.325	.0287	.0125	.002	.8516	.002	.1457	.002
318.15	101.325	.0585	.0139	.002	.7375	.002	.2579	.002
318.15	101.325	.0842	.0216	.002	.6449	.002	.3483	.002
318.15	101.325	.1123	.0264	.002	.5592	.002	.4322	.002
298.15	101.325	.0541	.0093	.002	.7403	.002	.2538	.002
318.15	101.325	.1444	.0311	.002	.5026	.002	.4856	.002
318.15	101.325	.1683	.0426	.002	.428	.002	.5467	.002
318.15	101.325	.1993	.0513	.002	.4053	.002	.5634	.002
298.15	101.325	.0839	.0163	.002	.6432	.002	.3452	.002
298.15	101.325	.113	.0226	.002	.5572	.002	.4285	.002
298.15	101.325	.1438	.0247	.002	.5064	.002	.4784	.002
298.15	101.325	.1656	.0311	.002	.4619	.002	.5192	.002
298.15	101.325	.2054	.0486	.002	.4102	.002	.5682	.002
308.15	101.325	.0266	.0112	.002	.8529	.002	.1415	.002
308.15	101.325	.0536	.0159	.002	.7444	.002	.2478	.002
