Measured thermophysical data. Liquid-liquid equilibria for ternary mixtures of water + 2-propanol + 1-alkyl-3-methylimidazolium bis(trifluoromethylsulfonyl)imide ionic liquids at 298.15 K
Source: Fluid Phase Equilib., 2016, 10.1016/j.fluid.2015.12.051
Compound 1: water, H2O, purity 99.8%
Compound 2: 2-propanol, C3H8O, purity 99.2%
Compound 3: 1-hexyl-3-methylimidazolium bis(trifluoromethylsulfonyl)imide, C12H19F6N3O4S2, purity 99.0%
Compound 4: 1-octyl-3-methylimidazolium bis(trifluoromethylsulfonyl)imide, C14H23F6N3O4S2, purity 99.0%
Compound 5: 1-decyl-3-methylimidazolium bis(trifluoromethylsulfonyl)imide, C16H27F6N3O4S2, purity 99.0%

System: 2-propanol + water + 1-hexyl-3-methylimidazolium bis(trifluoromethylsulfonyl)imide; phases: Liquid mixture 2, Liquid mixture 1
Fixed: Temperature, K = 298.15
Fixed: Pressure, kPa = 101
Property: Mole fraction of 2-propanol (Liquid mixture 2); method: Chromatography
Property: Mole fraction of water (Liquid mixture 1); method: Chromatography
Property: Mole fraction of 2-propanol (Liquid mixture 1); method: Chromatography
Mole fraction of water	Mole fraction of 2-propanol	uncertainty	Mole fraction of water	uncertainty	Mole fraction of 2-propanol	uncertainty
.379	0	.001	1	.001	0	.001
.398	.051	.001	.99	.001	.01	.001
.453	.17	.001	.979	.001	.021	.001
.497	.232	.001	.969	.001	.03	.001
.523	.251	.001	.964	.001	.035	.001
.586	.269	.001	.945	.001	.054	.001
.619	.268	.001	.936	.001	.062	.001
.641	.264	.001	.926	.001	.071	.001
.677	.251	.001	.908	.001	.087	.001

System: 2-propanol + water + 1-octyl-3-methylimidazolium bis(trifluoromethylsulfonyl)imide; phases: Liquid mixture 2, Liquid mixture 1
Fixed: Temperature, K = 298.15
Fixed: Pressure, kPa = 101
Property: Mole fraction of 2-propanol (Liquid mixture 2); method: Chromatography
Property: Mole fraction of water (Liquid mixture 1); method: Chromatography
Property: Mole fraction of 2-propanol (Liquid mixture 1); method: Chromatography
Mole fraction of water	Mole fraction of 2-propanol	uncertainty	Mole fraction of water	uncertainty	Mole fraction of 2-propanol	uncertainty
.341	0	.001	1	.001	0	.001
.401	.152	.001	.978	.001	.022	.001
.457	.245	.001	.963	.001	.037	.001
.489	.269	.001	.957	.001	.042	.001
.535	.284	.001	.945	.001	.055	.001
.563	.291	.001	.933	.001	.066	.001
.603	.287	.001	.923	.001	.076	.001
.633	.277	.001	.907	.001	.09	.001
.669	.262	.001	.893	.001	.103	.001

System: 2-propanol + water + 1-decyl-3-methylimidazolium bis(trifluoromethylsulfonyl)imide; phases: Liquid mixture 2, Liquid mixture 1
Fixed: Temperature, K = 298.15
Fixed: Pressure, kPa = 101
Property: Mole fraction of 2-propanol (Liquid mixture 2); method: Chromatography
Property: Mole fraction of water (Liquid mixture 1); method: Chromatography
Property: Mole fraction of 2-propanol (Liquid mixture 1); method: Chromatography
Mole fraction of water	Mole fraction of 2-propanol	uncertainty	Mole fraction of water	uncertainty	Mole fraction of 2-propanol	uncertainty
.243	0	.001	1	.001	0	.001
.347	.175	.001	.98	.001	.02	.001
.387	.235	.001	.97	.001	.03	.001
.429	.285	.001	.958	.001	.042	.001
.5	.322	.001	.94	.001	.059	.001
.54	.321	.001	.932	.001	.068	.001
.598	.31	.001	.913	.001	.085	.001
.664	.279	.001	.88	.001	.116	.001
.7	.256	.001	.863	.001	.131	.001
