Measured thermophysical data. New high pressure vapor-liquid equilibrium data and density predictions for carbon dioxide + ethyl acetate system
Source: Fluid Phase Equilib., 2012, 10.1016/j.fluid.2012.03.028
Compound 1: carbon dioxide, CO2, purity 99.7%
Compound 2: ethyl ethanoate, C4H8O2, purity 99%

System: carbon dioxide + ethyl ethanoate; phases: Gas, Liquid
Property: Vapor or sublimation pressure, kPa (Gas); method: Closed cell (Static) method
Mole fraction of carbon dioxide	Temperature, K	Vapor or sublimation pressure, kPa	uncertainty
.1336	323.2	850	15
.4082	323.2	2720	15
.5078	323.2	3670	15
.5788	323.2	4450	15
.6664	323.2	5360	15
.7211	323.2	5960	15
.7601	323.2	6480	15
.1211	333.2	930	15
.3164	333.2	2360	15
.375	333.2	2930	15
.4916	333.2	4050	15
.6936	333.2	6470	15
.7726	333.2	7600	15
.8307	333.2	8470	15
.8947	333.2	9440	15
.9176	333.2	9730	15
.1163	343.2	1040	15
.2576	343.2	2220	15
.3723	343.2	3330	15
.4647	343.2	4350	15
.5785	343.2	5720	15
.638	343.2	6660	15
.7364	343.2	7880	15
.7876	343.2	8840	15
.1153	353.2	1080	15
.3774	353.2	3710	15
.444	353.2	4400	15
.491	353.2	5030	15
.5494	353.2	5830	15
.6785	353.2	7690	15
.7232	353.2	8550	15
.7671	353.2	9440	15
.8168	353.2	10340	15
.8573	353.2	10940	15
.0716	363.2	1230	15
.2759	363.2	3010	15
.369	363.2	5190	15
.5486	363.2	6750	15
.6126	363.2	7910	15
.7091	363.2	9450	15
.7463	363.2	10220	15

System: carbon dioxide + ethyl ethanoate; phases: Gas, Liquid
Property: Mole fraction of carbon dioxide (Gas); method: Chromatography
Mole fraction of carbon dioxide	Temperature, K	Mole fraction of carbon dioxide	uncertainty
.3723	343.2	.9757	.019514
.4647	343.2	.9871	.019742
.5785	343.2	.9873	.019746
.638	343.2	.9853	.019706
.7364	343.2	.9838	.019676
.0716	363.2	.8953	.017906
.2759	363.2	.9589	.019178
.369	363.2	.9674	.019348
.5486	363.2	.9702	.019404
.6126	363.2	.9633	.019266
.7091	363.2	.954	.01908
.7463	363.2	.9422	.018844
