Measured thermophysical data. Liquid liquid and liquid liquid equilibrium for ternary system water acetonitrile cyclohexene at 298.15 K
Source: Fluid Phase Equilib., 2016, 10.1016/j.fluid.2015.06.039
Compound 1: water, H2O
Compound 2: acetonitrile, C2H3N, purity 99%
Compound 3: cyclohexene, C6H10, purity 99.9%

System: acetonitrile + cyclohexene + water; phases: Liquid mixture 1, Liquid mixture 2, Liquid mixture 3
Property: Mole fraction of acetonitrile (Liquid mixture 1); method: Chromatography
Property: Mole fraction of water (Liquid mixture 1); method: Chromatography
Property: Mole fraction of acetonitrile (Liquid mixture 2); method: Chromatography
Property: Mole fraction of water (Liquid mixture 2); method: Chromatography
Property: Mole fraction of acetonitrile (Liquid mixture 3); method: Chromatography
Property: Mole fraction of water (Liquid mixture 3); method: Chromatography
Temperature, K	Pressure, kPa	Mole fraction of acetonitrile	uncertainty	Mole fraction of water	uncertainty	Mole fraction of acetonitrile	uncertainty	Mole fraction of water	uncertainty	Mole fraction of acetonitrile	uncertainty	Mole fraction of water	uncertainty
298.15	99.06	.103	.0032	.894	.0032	.62	.0032	.321	.0032	.116	.0032	.009	.0032

System: acetonitrile + cyclohexene + water; phases: Liquid mixture 1, Liquid mixture 2
Property: Mole fraction of acetonitrile (Liquid mixture 1); method: Chromatography
Property: Mole fraction of acetonitrile (Liquid mixture 2); method: Chromatography
Property: Mole fraction of water (Liquid mixture 2); method: Chromatography
Temperature, K	Pressure, kPa	Mole fraction of water	Mole fraction of acetonitrile	uncertainty	Mole fraction of acetonitrile	uncertainty	Mole fraction of water	uncertainty
298.15	99.06	.968	.031	.0032	.096	.0032	.013	.0032
298.15	99.06	.931	.068	.0032	.099	.0032	.004	.0032
298.15	99.06	.851	.148	.0032	.602	.0032	.338	.0032
298.15	99.06	.013	.135	.0032	.72	.0032	.017	.0032
298.15	99.06	.017	.136	.0032	.728	.0032	.151	.0032
