Measured thermophysical data. Vapor-liquid equilibria and excess molar volumes of N-methyl-2-pyrrolidone with 2-alkoxyethanols
Source: Fluid Phase Equilib., 2012, 10.1016/j.fluid.2012.08.030
Compound 1: N-methyl-2-pyrrolidone, C5H9NO, purity 99.5%
Compound 2: 2-methoxyethanol, C3H8O2, purity 99.5%
Compound 3: 2-ethoxyethanol, C4H10O2, purity 99.5%
Compound 4: 2-butoxyethanol, C6H14O2, purity 99.5%

System: N-methyl-2-pyrrolidone; phases: Liquid
Fixed: Pressure, kPa = 101.325
Property: Mass density, kg/m3 (Liquid); method: Vibrating tube method
Temperature, K	Mass density, kg/m3	uncertainty
303.15	1023.45	.01

System: N-methyl-2-pyrrolidone; phases: Liquid, Gas
Property: Vapor or sublimation pressure, kPa (Liquid); method: Ebulliometric method (Recirculating still)
Temperature, K	Vapor or sublimation pressure, kPa	uncertainty
474.01	95.3	.05
471.15	88.7	.05
467.66	81.2	.05
465.29	76.4	.05
461.17	68.6	.05
456.48	60.5	.05
452.13	53.7	.05
448.05	47.9	.05
442.88	41.3	.05
436.5	34.2	.05
430.09	28.1	.05

System: N-methyl-2-pyrrolidone; phases: Liquid
Property: Mass density, kg/m3 (Liquid); method: Vibrating tube method
Temperature, K	Pressure, kPa	Mass density, kg/m3	uncertainty
308.15	101	1019.34	.01
313.15	101	1014.82	.01
318.15	101	1010.06	.01

System: 2-methoxyethanol; phases: Liquid
Fixed: Pressure, kPa = 101.325
Property: Mass density, kg/m3 (Liquid); method: Vibrating tube method
Temperature, K	Mass density, kg/m3	uncertainty
303.15	955.74	.01

System: 2-methoxyethanol; phases: Liquid, Gas
Property: Vapor or sublimation pressure, kPa (Liquid); method: Ebulliometric method (Recirculating still)
Temperature, K	Vapor or sublimation pressure, kPa	uncertainty
395.78	95.3	.05
393.75	88.7	.05
391.28	81.2	.05
389.59	76.4	.05
386.66	68.6	.05
383.3	60.5	.05
380.17	53.7	.05
377.22	47.9	.05
373.48	41.3	.05
368.84	34.2	.05
364.15	28.1	.05

System: 2-methoxyethanol; phases: Liquid
Property: Mass density, kg/m3 (Liquid); method: Vibrating tube method
Temperature, K	Pressure, kPa	Mass density, kg/m3	uncertainty
308.15	101	951.14	.01
313.15	101	946.25	.01
318.15	101	941.59	.01

System: 2-ethoxyethanol; phases: Liquid
Fixed: Pressure, kPa = 101.325
Property: Mass density, kg/m3 (Liquid); method: Vibrating tube method
Temperature, K	Mass density, kg/m3	uncertainty
303.15	921.21	.01

System: 2-ethoxyethanol; phases: Liquid, Gas
Property: Vapor or sublimation pressure, kPa (Liquid); method: Ebulliometric method (Recirculating still)
Temperature, K	Vapor or sublimation pressure, kPa	uncertainty
406.33	95.3	.05
404.22	88.7	.05
401.65	81.2	.05
399.9	76.4	.05
396.86	68.6	.05
393.37	60.5	.05
390.12	53.7	.05
387.06	47.9	.05
383.18	41.3	.05
378.36	34.2	.05
373.48	28.1	.05

System: 2-ethoxyethanol; phases: Liquid
Property: Mass density, kg/m3 (Liquid); method: Vibrating tube method
Temperature, K	Pressure, kPa	Mass density, kg/m3	uncertainty
308.15	101	916.48	.01
313.15	101	911.88	.01
318.15	101	907.79	.01

System: 2-butoxyethanol; phases: Liquid
Fixed: Pressure, kPa = 101.325
Property: Mass density, kg/m3 (Liquid); method: Vibrating tube method
Temperature, K	Mass density, kg/m3	uncertainty
303.15	892.28	.01

System: 2-butoxyethanol; phases: Liquid, Gas
Property: Vapor or sublimation pressure, kPa (Liquid); method: Ebulliometric method (Recirculating still)
Temperature, K	Vapor or sublimation pressure, kPa	uncertainty
442.49	95.3	.05
440.2	88.7	.05
437.42	81.2	.05
435.52	76.4	.05
432.22	68.6	.05
428.43	60.5	.05
424.9	53.7	.05
421.57	47.9	.05
417.35	41.3	.05
412.1	34.2	.05
406.8	28.1	.05

System: 2-butoxyethanol; phases: Liquid
Property: Mass density, kg/m3 (Liquid); method: Vibrating tube method
Temperature, K	Pressure, kPa	Mass density, kg/m3	uncertainty
308.15	101	888.19	.01
313.15	101	884.17	.01
318.15	101	880.02	.01

System: 2-methoxyethanol + N-methyl-2-pyrrolidone; phases: Liquid, Gas
Property: Boiling temperature at pressure P, K (Liquid); method: Ebulliometric method (Recirculating still)
Mole fraction of N-methyl-2-pyrrolidone	Pressure, kPa	Boiling temperature at pressure P, K	uncertainty
0	95.3	395.78	.05
.084	95.3	398.19	.05
.171	95.3	401.04	.05
.261	95.3	404.39	.05
.354	95.3	408.36	.05
.451	95.3	413.09	.05
.552	95.3	418.87	.05
.657	95.3	426.12	.05
.767	95.3	435.78	.05
.881	95.3	449.75	.05
.916	95.3	455.43	.05
.94	95.3	459.83	.05
.97	95.3	466.21	.05
.988	95.3	470.71	.05
1	95.3	474.01	.05

System: 2-methoxyethanol + N-methyl-2-pyrrolidone; phases: Gas, Liquid
Property: Mole fraction of N-methyl-2-pyrrolidone (Gas); method: Gravimetric method
Mole fraction of N-methyl-2-pyrrolidone	Pressure, kPa	Mole fraction of N-methyl-2-pyrrolidone	uncertainty
0	95.3	0	.05
.084	95.3	.008	.05
.171	95.3	.019	.05
.261	95.3	.032	.05
.354	95.3	.049	.05
.451	95.3	.072	.05
.552	95.3	.106	.05
.657	95.3	.158	.05
.767	95.3	.248	.05
.881	95.3	.432	.05
.916	95.3	.532	.05
.94	95.3	.621	.05
.97	95.3	.773	.05
.988	95.3	.897	.05
1	95.3	1	.05

System: 2-methoxyethanol + N-methyl-2-pyrrolidone; phases: Liquid
Fixed: Pressure, kPa = 101
Property: Mass density, kg/m3 (Liquid); method: Vibrating tube method
Temperature, K	Mole fraction of N-methyl-2-pyrrolidone	Mass density, kg/m3	uncertainty
303.15	0	955.74	.01
303.15	.084	965.64	.01
303.15	.171	975.06	.01
303.15	.261	983.98	.01
303.15	.354	992.29	.01
303.15	.451	999.91	.01
303.15	.552	1006.73	.01
303.15	.657	1012.64	.01
303.15	.767	1017.5	.01
303.15	.881	1021.17	.01
303.15	.916	1022	.01
303.15	.94	1022.5	.01
303.15	.97	1023.01	.01
303.15	.988	1023.3	.01
303.15	1	1023.45	.01
308.15	0	951.14	.01
308.15	.084	961.46	.01
308.15	.171	971.25	.01
308.15	.261	980.47	.01
308.15	.354	989	.01
308.15	.451	996.77	.01
308.15	.552	1003.64	.01
308.15	.657	1009.49	.01
308.15	.767	1014.17	.01
308.15	.881	1017.52	.01
308.15	.916	1018.23	.01
308.15	.94	1018.64	.01
308.15	.97	1019.04	.01
308.15	.988	1019.24	.01
308.15	1	1019.34	.01
313.15	0	946.25	.01
313.15	.084	957.05	.01
313.15	.171	967.28	.01
313.15	.261	976.83	.01
313.15	.354	985.62	.01
313.15	.451	993.52	.01
313.15	.552	1000.44	.01
313.15	.657	1006.19	.01
313.15	.767	1010.64	.01
313.15	.881	1013.58	.01
313.15	.916	1014.14	.01
313.15	.94	1014.43	.01
313.15	.97	1014.68	.01
313.15	.988	1014.78	.01
313.15	1	1014.82	.01
318.15	0	941.59	.01
318.15	.084	952.92	.01
318.15	.171	963.59	.01
318.15	.261	973.49	.01
318.15	.354	982.52	.01
318.15	.451	990.55	.01
318.15	.552	997.46	.01
318.15	.657	1003.04	.01
318.15	.767	1007.15	.01
318.15	.881	1009.56	.01
318.15	.916	1009.93	.01
318.15	.94	1010.07	.01
318.15	.97	1010.13	.01
318.15	.988	1010.1	.01
318.15	1	1010.06	.01

System: 2-ethoxyethanol + N-methyl-2-pyrrolidone; phases: Liquid, Gas
Property: Boiling temperature at pressure P, K (Liquid); method: Ebulliometric method (Recirculating still)
Mole fraction of N-methyl-2-pyrrolidone	Pressure, kPa	Boiling temperature at pressure P, K	uncertainty
0	95.3	406.33	.05
.101	95.3	409.46	.05
.202	95.3	413.2	.05
.302	95.3	417.44	.05
.402	95.3	422.19	.05
.503	95.3	427.5	.05
.602	95.3	433.52	.05
.702	95.3	440.5	.05
.802	95.3	448.86	.05
.851	95.3	453.79	.05
.901	95.3	459.43	.05
.926	95.3	462.59	.05
.951	95.3	466.03	.05
.982	95.3	470.95	.05
1	95.3	474.01	.05

System: 2-ethoxyethanol + N-methyl-2-pyrrolidone; phases: Gas, Liquid
Property: Mole fraction of N-methyl-2-pyrrolidone (Gas); method: Gravimetric method
Mole fraction of N-methyl-2-pyrrolidone	Pressure, kPa	Mole fraction of N-methyl-2-pyrrolidone	uncertainty
0	95.3	0	.05
.101	95.3	.015	.05
.202	95.3	.033	.05
.302	95.3	.056	.05
.402	95.3	.084	.05
.503	95.3	.122	.05
.602	95.3	.174	.05
.702	95.3	.248	.05
.802	95.3	.364	.05
.851	95.3	.449	.05
.901	95.3	.566	.05
.926	95.3	.642	.05
.951	95.3	.735	.05
.982	95.3	.889	.05
1	95.3	1	.05

System: 2-ethoxyethanol + N-methyl-2-pyrrolidone; phases: Liquid
Fixed: Pressure, kPa = 101
Property: Mass density, kg/m3 (Liquid); method: Vibrating tube method
Temperature, K	Mole fraction of N-methyl-2-pyrrolidone	Mass density, kg/m3	uncertainty
303.15	0	921.21	.01
303.15	.101	936.06	.01
303.15	.202	949.87	.01
303.15	.302	962.64	.01
303.15	.402	974.38	.01
303.15	.503	985.1	.01
303.15	.602	994.78	.01
303.15	.702	1003.45	.01
303.15	.802	1011.12	.01
303.15	.851	1014.58	.01
303.15	.901	1017.78	.01
303.15	.926	1019.29	.01
303.15	.951	1020.74	.01
303.15	.982	1022.5	.01
303.15	1	1023.45	.01
308.15	0	916.48	.01
308.15	.101	931.85	.01
308.15	.202	946.07	.01
308.15	.302	959.15	.01
308.15	.402	971.1	.01
308.15	.503	981.93	.01
308.15	.602	991.62	.01
308.15	.702	1000.2	.01
308.15	.802	1007.68	.01
308.15	.851	1011.01	.01
308.15	.901	1014.06	.01
308.15	.926	1015.48	.01
308.15	.951	1016.84	.01
308.15	.982	1018.47	.01
308.15	1	1019.34	.01
313.15	0	911.88	.01
313.15	.101	927.8	.01
313.15	.202	942.45	.01
313.15	.302	955.84	.01
313.15	.402	967.97	.01
313.15	.503	978.86	.01
313.15	.602	988.5	.01
313.15	.702	996.91	.01
313.15	.802	1004.1	.01
313.15	.851	1007.23	.01
313.15	.901	1010.06	.01
313.15	.926	1011.37	.01
313.15	.951	1012.59	.01
313.15	.982	1014.05	.01
313.15	1	1014.82	.01
318.15	0	907.79	.01
318.15	.101	924.28	.01
318.15	.202	939.35	.01
318.15	.302	953.02	.01
318.15	.402	965.3	.01
318.15	.503	976.19	.01
318.15	.602	985.68	.01
318.15	.702	993.82	.01
318.15	.802	1000.58	.01
318.15	.851	1003.46	.01
318.15	.901	1006	.01
318.15	.926	1007.14	.01
318.15	.951	1008.2	.01
318.15	.982	1009.43	.01
318.15	1	1010.06	.01

System: 2-butoxyethanol + N-methyl-2-pyrrolidone; phases: Liquid, Gas
Property: Boiling temperature at pressure P, K (Liquid); method: Other
Mole fraction of N-methyl-2-pyrrolidone	Pressure, kPa	Boiling temperature at pressure P, K	uncertainty
0	95.3	442.49	.05
.132	95.3	446.53	.05
.255	95.3	450.85	.05
.369	95.3	455.01	.05
.477	95.3	458.83	.05
.577	95.3	462.26	.05
.672	95.3	465.29	.05
.761	95.3	467.95	.05
.845	95.3	470.26	.05
.925	95.3	472.27	.05
.948	95.3	472.82	.05
.963	95.3	473.18	.05
.978	95.3	473.52	.05
.993	95.3	473.85	.05
1	95.3	474.01	.05

System: 2-butoxyethanol + N-methyl-2-pyrrolidone; phases: Gas, Liquid
Property: Mole fraction of N-methyl-2-pyrrolidone (Gas); method: Gravimetric method
Mole fraction of N-methyl-2-pyrrolidone	Pressure, kPa	Mole fraction of N-methyl-2-pyrrolidone	uncertainty
0	95.3	0	.05
.132	95.3	.061	.05
.255	95.3	.127	.05
.369	95.3	.198	.05
.477	95.3	.277	.05
.577	95.3	.363	.05
.672	95.3	.459	.05
.761	95.3	.568	.05
.845	95.3	.691	.05
.925	95.3	.833	.05
.948	95.3	.88	.05
.963	95.3	.913	.05
.978	95.3	.947	.05
.993	95.3	.982	.05
1	95.3	1	.05

System: 2-butoxyethanol + N-methyl-2-pyrrolidone; phases: Liquid
Fixed: Pressure, kPa = 101
Property: Mass density, kg/m3 (Liquid); method: Vibrating tube method
Temperature, K	Mole fraction of N-methyl-2-pyrrolidone	Mass density, kg/m3	uncertainty
303.15	0	892.28	.01
303.15	.132	914.72	.01
303.15	.255	934.22	.01
303.15	.369	951.2	.01
303.15	.477	966.04	.01
303.15	.577	979	.01
303.15	.672	990.36	.01
303.15	.761	1000.3	.01
303.15	.845	1009.04	.01
303.15	.925	1016.72	.01
303.15	.948	1018.83	.01
303.15	.963	1020.19	.01
303.15	.978	1021.52	.01
303.15	.993	1022.82	.01
303.15	1	1023.45	.01
308.15	0	888.19	.01
308.15	.132	911.2	.01
308.15	.255	931.07	.01
308.15	.369	948.27	.01
308.15	.477	963.19	.01
308.15	.577	976.12	.01
308.15	.672	987.35	.01
308.15	.761	997.1	.01
308.15	.845	1005.59	.01
308.15	.925	1012.95	.01
308.15	.948	1014.97	.01
308.15	.963	1016.26	.01
308.15	.978	1017.52	.01
308.15	.993	1018.74	.01
308.15	1	1019.34	.01
313.15	0	884.17	.01
313.15	.132	907.8	.01
313.15	.255	928.06	.01
313.15	.369	945.46	.01
313.15	.477	960.43	.01
313.15	.577	973.27	.01
313.15	.672	984.32	.01
313.15	.761	993.8	.01
313.15	.845	1001.93	.01
313.15	.925	1008.89	.01
313.15	.948	1010.77	.01
313.15	.963	1011.97	.01
313.15	.978	1013.14	.01
313.15	.993	1014.27	.01
313.15	1	1014.82	.01
318.15	0	880.02	.01
318.15	.132	904.37	.01
318.15	.255	925.08	.01
318.15	.369	942.72	.01
318.15	.477	957.74	.01
318.15	.577	970.48	.01
318.15	.672	981.3	.01
318.15	.761	990.46	.01
318.15	.845	998.18	.01
318.15	.925	1004.66	.01
318.15	.948	1006.39	.01
318.15	.963	1007.49	.01
318.15	.978	1008.55	.01
318.15	.993	1009.57	.01
318.15	1	1010.06	.01
