Measured thermophysical data. Solubilities of pharmaceutical and bioactive compounds in trihexyl(tetradecyl)phosphonium chloride ionic liquid
Source: Fluid Phase Equilib., 2015, 10.1016/j.fluid.2015.03.053
Compound 1: trihexyl(tetradecyl)phosphonium chloride, C32H68ClP, purity 95%
Compound 2: N-acetyl-L-cysteine, C5H9NO3S, purity 99%
Compound 3: isoniazid, C6H7N3O, purity 99%
Compound 4: pyrazinecarboxamide, C5H5N3O
Compound 5: coumarin, C9H6O2, purity 99%
Compound 6: 4-hydroxycoumarin, C9H6O3, purity 98%
Compound 7: 2-isopropyl-5-methylcyclohexa-2,5-diene-1,4-dione, C10H12O2, purity 99%
Compound 8: ibuprofen, C13H18O2, purity 98%
Compound 9: 4-isobutylacetophenone, C12H16O, purity 97%

System: N-acetyl-L-cysteine; phases: Crystal, Liquid, Air at 1 atmosphere
Property: Molar enthalpy of transition or fusion, kJ/mol (Crystal); method: DSC
Molar enthalpy of transition or fusion, kJ/mol	uncertainty
32.1	.06

System: isoniazid; phases: Crystal, Liquid, Air at 1 atmosphere
Property: Normal melting temperature, K (Crystal); method: DSC/DTA
Normal melting temperature, K	uncertainty
445.84	.5

System: 4-hydroxycoumarin; phases: Crystal, Liquid, Air at 1 atmosphere
Property: Normal melting temperature, K (Crystal); method: DSC/DTA
Normal melting temperature, K	uncertainty
488.3	.06

System: 2-isopropyl-5-methylcyclohexa-2,5-diene-1,4-dione; phases: Crystal, Liquid, Air at 1 atmosphere
Property: Normal melting temperature, K (Crystal); method: DSC/DTA
Normal melting temperature, K	uncertainty
316.7	

System: ibuprofen; phases: Crystal, Liquid, Air at 1 atmosphere
Property: Normal melting temperature, K (Crystal); method: DSC/DTA
Normal melting temperature, K	uncertainty
347.7	.05

System: N-acetyl-L-cysteine + trihexyl(tetradecyl)phosphonium chloride; phases: Liquid, Crystal
Fixed: Pressure, kPa = 101
Property: Mole fraction of N-acetyl-L-cysteine (Liquid); method: visual
Temperature, K	Mole fraction of N-acetyl-L-cysteine	uncertainty
348.78	.0034	.0005
351.7	.0091	.0005
363.79	.0447	.0005
374.1	.0887	.0005
378.23	.1188	.0005
378.91	.1461	.0005
379.09	.1768	.0005
379.16	.2124	.0005
379.51	.3201	.0005
379.75	.4545	.0005
379.79	.5463	.0005
379.97	.6478	.0005
380.04	.8419	.0005
381.99	1	.0005

System: isoniazid + trihexyl(tetradecyl)phosphonium chloride; phases: Liquid, Crystal
Fixed: Pressure, kPa = 101
Property: Mole fraction of isoniazid (Liquid); method: visual
Temperature, K	Mole fraction of isoniazid	uncertainty
301.45	.1356	.0005
333.24	.1534	.0005
350.67	.1678	.0005
364.23	.1789	.0005
378.52	.2045	.0005
393.51	.2844	.0005
400.54	.3809	.0005
409.96	.5223	.0005
445.84	1	.0005

System: pyrazinecarboxamide + trihexyl(tetradecyl)phosphonium chloride; phases: Liquid, Crystal
Fixed: Pressure, kPa = 101
Property: Mole fraction of pyrazinecarboxamide (Liquid); method: visual
Temperature, K	Mole fraction of pyrazinecarboxamide	uncertainty
295.34	.0195	.0005
312.35	.0293	.0005
348.81	.0499	.0005
374.4	.0649	.0005
394.96	.0844	.0005
397.45	.0912	.0005
409.3	.1345	.0005
410.26	.1535	.0005
461.42	1	.0005

System: coumarin + trihexyl(tetradecyl)phosphonium chloride; phases: Liquid, Crystal
Fixed: Pressure, kPa = 101
Property: Mole fraction of coumarin (Liquid); method: visual
Temperature, K	Mole fraction of coumarin	uncertainty
275.12	.0156	.0005
279.59	.0234	.0005
296.63	.0567	.0005
311.95	.0945	.0005
323.94	.164	.0005
327.41	.2343	.0005
331.96	.4178	.0005
332.45	.639	.0005
333.67	.8923	.0005
341.68	1	.0005

System: 4-hydroxycoumarin + trihexyl(tetradecyl)phosphonium chloride; phases: Liquid, Crystal
Fixed: Pressure, kPa = 101
Property: Mole fraction of 4-hydroxycoumarin (Liquid); method: visual
Temperature, K	Mole fraction of 4-hydroxycoumarin	uncertainty
289.95	.0496	.0005
300.01	.0543	.0005
326.51	.076	.0005
340.92	.0932	.0005
365.9	.134	.0005
389.53	.1964	.0005
395.56	.2848	.0005
399.67	.3991	.0005
401.23	.6545	.0005
488.3	1	.0005

System: ibuprofen + trihexyl(tetradecyl)phosphonium chloride; phases: Liquid, Crystal
Fixed: Pressure, kPa = 101
Property: Mole fraction of ibuprofen (Liquid); method: visual
Temperature, K	Mole fraction of ibuprofen	uncertainty
325.39	.0827	.0005
326.47	.0874	.0005
331.38	.119	.0005
335.42	.1698	.0005
337.46	.2456	.0005
339.46	.3273	.0005
342.12	.439	.0005
342.4	.5024	.0005
342.95	.5939	.0005
343.46	.6589	.0005
343.94	.7362	.0005
344.23	.8256	.0005
344.27	.8599	.0005
344.29	.8867	.0005
344.34	.9634	.0005
347.7	1	.0005

System: 2-isopropyl-5-methylcyclohexa-2,5-diene-1,4-dione + trihexyl(tetradecyl)phosphonium chloride; phases: Liquid, Crystal
Fixed: Pressure, kPa = 101
Property: Mole fraction of 2-isopropyl-5-methylcyclohexa-2,5-diene-1,4-dione (Liquid); method: visual
Temperature, K	Mole fraction of 2-isopropyl-5-methylcyclohexa-2,5-diene-1,4-dione	uncertainty
291.39	.0827	.0005
292.57	.0874	.0005
295.89	.119	.0005
297.42	.1798	.0005
297.56	.2456	.0005
297.77	.298	.0005
297.8	.3576	.0005
297.85	.4278	.0005
297.91	.5262	.0005
297.92	.6145	.0005
297.98	.7274	.0005
298.06	.8543	.0005
298.97	.9234	.0005
307.18	.9754	.0005
316.7	1	.0005
