Measured thermophysical data. CO2 absorption properties of imidazolium based ionic liquids using a magnetic suspension balance
Source: Fluid Phase Equilib., 2016, 10.1016/j.fluid.2015.12.055
Compound 1: carbon dioxide, CO2
Compound 2: 1-ethyl-3-methylimidazolium bis(trifluoromethylsulfonyl)imide, C8H11F6N3O4S2, purity 97%
Compound 3: 1-ethyl-3-methylimidazolium bis(pentafluoroethylsulfonyl)imide, C10H11F10N3O4S2, purity 97%
Compound 4: 1-ethyl-3-methyl-1H-imidazol-3-ium 1,1,2,2,3,3,4,4,4-nonafluorobutane-1-sulfonate, C10H11F9N2O3S, purity 97%
Compound 5: 1-ethyl-3-methylimidazolium tetrafluoroborate, C6H11BF4N2, purity 98%

System: 1-ethyl-3-methylimidazolium bis(trifluoromethylsulfonyl)imide; phases: Liquid
Fixed: Pressure, kPa = 101.325
Property: Mass density, kg/m3 (Liquid); method: Vibrating tube method
Temperature, K	Mass density, kg/m3	uncertainty
273.15	1544.43	
283.15	1534.104	
293.15	1523.894	
298.15	1518.829	
303.15	1513.783	
313.15	1503.751	
323.15	1493.799	
333.15	1483.916	
343.15	1474.101	
353.15	1464.355	
363.15	1454.672	

System: 1-ethyl-3-methylimidazolium bis(trifluoromethylsulfonyl)imide; phases: Liquid
Property: Mass density, kg/m3 (Liquid); method: Vibrating tube method
Temperature, K	Pressure, kPa	Mass density, kg/m3	uncertainty
313.15	508	1504.27	
313.15	1002	1504.75	
313.15	1999	1505.7	
313.15	3001	1506.65	
313.15	3997	1507.6	
313.15	5001	1508.55	
313.15	6005	1509.49	

System: 1-ethyl-3-methylimidazolium bis(pentafluoroethylsulfonyl)imide; phases: Liquid
Fixed: Pressure, kPa = 101.325
Property: Mass density, kg/m3 (Liquid); method: Vibrating tube method
Temperature, K	Mass density, kg/m3	uncertainty
273.15	1621.64	
283.15	1610.401	
293.15	1599.209	
298.15	1593.651	
303.15	1588.121	
313.15	1577.133	
323.15	1566.23	
333.15	1555.397	
343.15	1544.629	
353.15	1533.92	
363.15	1523.272	

System: 1-ethyl-3-methylimidazolium bis(pentafluoroethylsulfonyl)imide; phases: Liquid
Property: Mass density, kg/m3 (Liquid); method: Vibrating tube method
Temperature, K	Pressure, kPa	Mass density, kg/m3	uncertainty
313.15	497	1577.9	
313.15	1001	1578.46	
313.15	1999	1579.57	
313.15	3003	1580.67	
313.15	4007	1581.77	
313.15	5000	1582.86	
313.15	6004	1583.94	

System: 1-ethyl-3-methyl-1H-imidazol-3-ium 1,1,2,2,3,3,4,4,4-nonafluorobutane-1-sulfonate; phases: Liquid
Fixed: Pressure, kPa = 101.325
Property: Mass density, kg/m3 (Liquid); method: Vibrating tube method
Temperature, K	Mass density, kg/m3	uncertainty
298.15	1546.537	
303.15	1541.236	
313.15	1530.709	
323.15	1520.31	
333.15	1510.007	
343.15	1499.783	
353.15	1489.642	
363.15	1479.58	

System: 1-ethyl-3-methyl-1H-imidazol-3-ium 1,1,2,2,3,3,4,4,4-nonafluorobutane-1-sulfonate; phases: Liquid
Property: Mass density, kg/m3 (Liquid); method: Vibrating tube method
Temperature, K	Pressure, kPa	Mass density, kg/m3	uncertainty
313.15	510	1530.15	
313.15	1007	1530.64	
313.15	2007	1531.73	
313.15	3005	1532.82	
313.15	4004	1533.91	
313.15	5000	1534.99	
313.15	5999	1536.06	

System: 1-ethyl-3-methylimidazolium tetrafluoroborate; phases: Liquid
Fixed: Pressure, kPa = 101.325
Property: Mass density, kg/m3 (Liquid); method: Vibrating tube method
Temperature, K	Mass density, kg/m3	uncertainty
293.15	1283.527	
298.15	1279.696	
303.15	1275.891	
313.15	1268.332	
323.15	1260.852	
333.15	1253.447	
343.15	1246.107	
353.15	1238.827	
363.15	1231.604	

System: 1-ethyl-3-methylimidazolium tetrafluoroborate; phases: Liquid
Property: Mass density, kg/m3 (Liquid); method: Vibrating tube method
Temperature, K	Pressure, kPa	Mass density, kg/m3	uncertainty
313.15	503	1268.82	
313.15	999	1269.09	
313.15	2001	1269.74	
313.15	2998	1270.26	
313.15	4000	1270.93	
313.15	5002	1271.59	
313.15	6000	1272.21	

System: carbon dioxide + 1-ethyl-3-methylimidazolium bis(trifluoromethylsulfonyl)imide; phases: Liquid, Gas
Property: Mole fraction of carbon dioxide (Liquid); method: gravimetric
Temperature, K	Pressure, kPa	Mole fraction of carbon dioxide	uncertainty
313.15	500	.094	
313.15	1000	.178	
313.15	2000	.308	
313.15	3000	.407	
313.15	3999	.484	
313.15	5000	.546	
313.15	5997	.593	

System: carbon dioxide + 1-ethyl-3-methylimidazolium bis(pentafluoroethylsulfonyl)imide; phases: Liquid, Gas
Property: Mole fraction of carbon dioxide (Liquid); method: gravimetric
Temperature, K	Pressure, kPa	Mole fraction of carbon dioxide	uncertainty
313.15	501	.112	
313.15	1001	.201	
313.15	2000	.337	
313.15	3000	.439	
313.15	4000	.519	
313.15	5000	.583	
313.15	6000	.633	

System: carbon dioxide + 1-ethyl-3-methyl-1H-imidazol-3-ium 1,1,2,2,3,3,4,4,4-nonafluorobutane-1-sulfonate; phases: Liquid, Gas
Property: Mole fraction of carbon dioxide (Liquid); method: gravimetric
Temperature, K	Pressure, kPa	Mole fraction of carbon dioxide	uncertainty
313.15	500	.092	
313.15	1005	.173	
313.15	2003	.3	
313.15	3003	.397	
313.15	3999	.477	
313.15	4995	.541	
313.15	5994	.592	

System: carbon dioxide + 1-ethyl-3-methylimidazolium tetrafluoroborate; phases: Liquid, Gas
Property: Mole fraction of carbon dioxide (Liquid); method: gravimetric
Temperature, K	Pressure, kPa	Mole fraction of carbon dioxide	uncertainty
313.15	505	.053	
313.15	1002	.099	
313.15	1999	.176	
313.15	2995	.242	
313.15	3994	.298	
313.15	4994	.345	
313.15	5986	.384	
