Measured thermophysical data. Vapour pressure and enthalpy of vaporization of  cyclic alkylene carbonates
Source: Fluid Phase Equilib., 2008
Compound 1: ethylene carbonate, C3H4O3
Compound 2: 4-methyl-1,3-dioxolan-2-one, C4H6O3
Compound 3: butylene carbonate, C5H8O3
Compound 4: glycerine carbonate, C4H6O4

System: ethylene carbonate; phases: Liquid, Gas
Property: Vapor or sublimation pressure, kPa (Liquid); method: Transpiration method
Temperature, K	Vapor or sublimation pressure, kPa	uncertainty
310.3	.012	
314.4	.01615	
314.5	.01614	
317.3	.02	
320.3	.02499	
320.4	.02475	
324.4	.03281	
323.5	.0305	
327.4	.03939	
331.3	.05119	
328.6	.04312	
335.4	.06848	
333.6	.05962	
342.3	.10313	
341.4	.0978	
338.7	.08312	
345.2	.12126	
349	.15399	
343.8	.10942	
347.6	.13793	
354	.20368	
352.4	.18692	
357.5	.24733	
363.2	.32831	
364.1	.34861	
360.6	.29205	
358.9	.2642	
366.7	.40473	
369.5	.46945	

System: ethylene carbonate; phases: Crystal, Gas
Property: Vapor or sublimation pressure, kPa (Crystal); method: Transpiration method
Temperature, K	Vapor or sublimation pressure, kPa	uncertainty
280.6	.00062	
286.2	.00119	
291.3	.002	
295.5	.00325	
299.4	.00472	
303.2	.00675	
304.4	.00785	
306.4	.00907	
308.4	.01077	

System: 4-methyl-1,3-dioxolan-2-one; phases: Liquid, Gas
Property: Vapor or sublimation pressure, kPa (Liquid); method: Transpiration method
Temperature, K	Vapor or sublimation pressure, kPa	uncertainty
298.4	.0085	
303.3	.01247	
308.2	.0181	
311.3	.0223	
313.2	.02529	
318.2	.03723	
321.2	.04503	
322.7	.05193	
324.2	.05893	
326.6	.06788	
329.6	.08307	
332.7	.1019	
335.7	.1281	
337.7	.1375	
338.8	.1525	
340.8	.1721	
341.8	.1787	
344.9	.2178	

System: butylene carbonate; phases: Liquid, Gas
Property: Vapor or sublimation pressure, kPa (Liquid); method: Transpiration method
Temperature, K	Vapor or sublimation pressure, kPa	uncertainty
288.6	.00186	
293.5	.00284	
298.5	.00453	
303.4	.00649	
307.3	.0087	
310.3	.01164	
313.3	.01439	
316.3	.01837	
319.3	.02281	
322.5	.02805	
327.4	.04092	
330.3	.04839	
333.6	.06415	
338.7	.086	
343.8	.1159	

System: glycerine carbonate; phases: Liquid, Gas
Property: Vapor or sublimation pressure, kPa (Liquid); method: Transpiration method
Temperature, K	Vapor or sublimation pressure, kPa	uncertainty
330.2	.00029	
333.2	.00039	
338.3	.00062	
343.2	.00091	
348.4	.00144	
351.2	.00173	
355.5	.0025	
360.6	.00362	
363.7	.00433	
366.4	.00542	
369.4	.00681	
371.8	.00782	
373.2	.00886	
377.2	.01171	
359.8	.00368	
384.5	.02019	
387.3	.02392	
388	.02471	
392.7	.03339	
398.5	.04694	
