Measured thermophysical data. Measurements of vapor-liquid equilibrium in both binary carbon dioxide-ethanol and ternary carbon dioxide-ethanol-water systemswith a newly developed flow-type apparatus
Source: Fluid Phase Equilib., 2015, 10.1016/j.fluid.2015.07.025
Compound 1: carbon dioxide, CO2, purity 99.5%
Compound 2: ethanol, C2H6O, purity 99.5%
Compound 3: water, H2O, purity 99.9%

System: ethanol + carbon dioxide; phases: Liquid, Gas
Property: Mole fraction of carbon dioxide (Liquid); method: Chromatography
Temperature, K	Mole fraction of carbon dioxide	Mole fraction of carbon dioxide	uncertainty
333	.98	.17	
333	.978	.176	
333	.982	.174	
333	.982	.175	
333	.983	.177	
333	.982	.281	
333	.978	.412	
333	.956	.64	
353	.913	.601	
358	.919	.556	
363	.921	.512	
368	.913	.482	
373	.908	.463	

System: ethanol + carbon dioxide; phases: Gas, Liquid
Property: Vapor or sublimation pressure, kPa (Gas); method: Isothermal flow mixing with back pressure control
Temperature, K	Mole fraction of carbon dioxide	Vapor or sublimation pressure, kPa	uncertainty
333	.98	4000	50
333	.978	4000	50
333	.982	4000	50
333	.982	4000	50
333	.983	4000	50
333	.982	6000	50
333	.978	8000	50
333	.956	10000	50
353	.913	12000	50
358	.919	12000	50
363	.921	12000	50
368	.913	12000	50
373	.908	12000	50

System: ethanol + carbon dioxide + water; phases: Liquid, Gas
Property: Mole fraction of water (Liquid); method: Chromatography
Property: Mole fraction of carbon dioxide (Gas); method: Chromatography
Property: Mole fraction of water (Gas); method: Chromatography
Temperature, K	Pressure, kPa	Mole fraction of carbon dioxide	Mole fraction of water	uncertainty	Mole fraction of carbon dioxide	uncertainty	Mole fraction of water	uncertainty
353	12000	.423	.105		.94		.00947	
353	12000	.34	.22		.946		.0107	
353	12000	.257	.328		.95		.0126	
353	12000	.18	.463		.955		.0119	
