Measured thermophysical data. Heat capacity and phase behaviour of aqueous solutions of triethylene glycol monopentyl ether. Two point scaling analysis
Source: Fluid Phase Equilib., 2017, 10.1016/j.fluid.2016.10.005
Compound 1: triethylene glycol monopentyl ether, C11H24O4, purity 98%
Compound 2: water, H2O, purity 99.8%

System: triethylene glycol monopentyl ether; phases: Liquid
Property: Molar heat capacity at constant pressure, J/K/mol (Liquid); method: DSC
Temperature, K	Pressure, kPa	Molar heat capacity at constant pressure, J/K/mol	uncertainty
278.15	101	471.696876846	
283.15	101	473.613537828	
288.15	101	475.618321154	
293.15	101	477.667165652	
298.15	101	479.71601015	
308.15	101	484.23228028	
318.15	101	489.0790092	
328.15	101	494.36634984	
333.15	101	497.054081332	

System: water; phases: Liquid
Property: Molar heat capacity at constant pressure, J/K/mol (Liquid); method: DSC
Temperature, K	Pressure, kPa	Molar heat capacity at constant pressure, J/K/mol	uncertainty
278.15	101	75.750649344	
283.15	101	75.584908768	
288.15	101	75.467809448	
293.15	101	75.392145272	
298.15	101	75.345305544	
308.15	101	75.316481096	
318.15	101	75.343504016	
328.15	101	75.401152912	
333.15	101	75.482221672	

System: water + triethylene glycol monopentyl ether; phases: Liquid mixture 1, Liquid mixture 2
Fixed: Pressure, kPa = 101
Property: Liquid-liquid equilibrium temperature, K (Liquid mixture 1); method: DSC
Molality, mol/kg of triethylene glycol monopentyl ether	Liquid-liquid equilibrium temperature, K	uncertainty
.35619	329.93	
.38506	330.78	
.40686	331.49	
.42602	331.95	
.44051	332.21	
.46927	332.68	
.48577	332.95	
.51107	333.2	
.5381	333.44	
.5586	333.6	
.58492	333.73	
.60258	333.82	
.62988	334.2	
.66795	333.99	
.70372	334.4	
.73103	334.5	
.77141	334.64	
.81407	335.02	
.82927	334.87	
.86785	334.77	
.91253	334.87	
.95728	335.08	

System: water + triethylene glycol monopentyl ether; phases: Liquid
Fixed: Pressure, kPa = 101
Property: Molar heat capacity at constant pressure, J/K/mol (Liquid); method: DSC
Temperature, K	Molality, mol/kg of triethylene glycol monopentyl ether	Molar heat capacity at constant pressure, J/K/mol	uncertainty
278.15	0	75.750649344	
278.15	.0166	75.9254124324015	
278.15	.0321	76.1624723288354	
278.15	.0392	76.2710168753962	
278.15	.06	76.5870235052151	
278.15	.0876	77.0065488844929	
278.15	.1214	77.5219789189172	
278.15	.1388	77.7870745065708	
278.15	.1661	78.1933570056844	
278.15	.1861	78.493786903556	
278.15	.2119	78.8764303300964	
278.15	.2272	79.0992975808315	
278.15	.2499	79.4379803781484	
278.15	.2726	79.7725329573715	
278.15	.2949	80.1025783314599	
278.15	.314	80.3934745142562	
278.15	.3353	80.7174386532126	
278.15	.3562	81.0505755039909	
278.15	.3851	81.5121399479993	
278.15	.4069	81.9209782949094	
278.15	.426	82.3050726659622	
278.15	.4405	82.6358055003357	
278.15	.4693	83.3764962178004	
278.15	.4858	83.8202742733366	
278.15	.5111	84.4842919503031	
278.15	.5381	85.0946256797393	
278.15	.5586	85.4770741669316	
278.15	.5849	85.9200408201278	
278.15	.6026	86.2017505763553	
278.15	.6299	86.6254089348305	
278.15	.668	87.1679662015407	
278.15	.7037	87.6214923303633	
278.15	.731	87.9338321021148	
278.15	.7714	88.3343524461357	
278.15	.8141	88.7446810653924	
278.15	.8293	88.8529910167028	
278.15	.8679	89.2087253503103	
278.15	.9125	89.6137628358275	
278.15	.9573	90.0490384935836	
283.15	0	75.584908768	
283.15	.0166	75.7681533408479	
283.15	.0321	76.0047222314016	
283.15	.0392	76.1130419570989	
283.15	.06	76.4302136577887	
283.15	.0876	76.8488763164232	
283.15	.1214	77.3632509967462	
283.15	.1388	77.6278037954722	
283.15	.1661	78.0462685183294	
283.15	.1861	78.3536027383514	
283.15	.2119	78.7543305927434	
283.15	.2272	78.9900261920096	
283.15	.2499	79.3433708069296	
283.15	.2726	79.7003182623628	
283.15	.2949	80.0605928473798	
283.15	.314	80.3704907220474	
283.15	.3353	80.7251306068663	
283.15	.3562	81.0756721475111	
283.15	.3851	81.5839533912947	
283.15	.4069	82.1684678101921	
283.15	.426	82.5847225671486	
283.15	.4405	82.9338465604166	
283.15	.4693	83.6031752661241	
283.15	.4858	83.9784369249833	
283.15	.5111	84.4465562422995	
283.15	.5381	84.8830765845178	
283.15	.5586	85.2026533584375	
283.15	.5849	85.5779223271446	
283.15	.6026	85.8242393970162	
283.15	.6299	86.1263959478043	
283.15	.668	86.5655544030715	
283.15	.7037	86.9249258153434	
283.15	.731	87.1885601532754	
283.15	.7714	87.5922216522809	
283.15	.8141	88.0264651811626	
283.15	.8293	88.1434266702492	
283.15	.8679	88.5093390857211	
283.15	.9125	88.9091650996248	
283.15	.9573	89.3563700781273	
288.15	0	75.467809448	
288.15	.0166	75.6596987949488	
288.15	.0321	75.8959290607576	
288.15	.0392	76.0040937375835	
288.15	.06	76.322634808973	
288.15	.0876	76.7425390030738	
288.15	.1214	77.2598932799837	
288.15	.1388	77.5277966047823	
288.15	.1661	77.9494507798172	
288.15	.1861	78.2620157504177	
288.15	.2119	78.6604077178564	
288.15	.2272	78.9052466661995	
288.15	.2499	79.2676831499546	
288.15	.2726	79.6395058876186	
288.15	.2949	80.0166989322052	
288.15	.314	80.3398456657691	
288.15	.3353	80.7212846300395	
288.15	.3562	81.1239349235115	
288.15	.3851	81.7702801630881	
288.15	.4069	82.3633414442729	
288.15	.426	82.7294365020283	
288.15	.4405	82.9907096574057	
288.15	.4693	83.4533699820145	
288.15	.4858	83.7056063508927	
288.15	.5111	84.0850878814232	
288.15	.5381	84.4599783940749	
288.15	.5586	84.7479561064071	
288.15	.5849	85.092919051798	
288.15	.6026	85.3094514251902	
288.15	.6299	85.6070978800046	
288.15	.668	86.0203206736096	
288.15	.7037	86.3824669363899	
288.15	.731	86.6373479362668	
288.15	.7714	87.003921891326	
288.15	.8141	87.406663718387	
288.15	.8293	87.5262316470027	
288.15	.8679	87.8691154054477	
288.15	.9125	88.2577847150991	
288.15	.9573	88.6894354737715	
293.15	0	75.392145272	
293.15	.0166	75.5946260674094	
293.15	.0321	75.8306531583712	
293.15	.0392	75.9387248058743	
293.15	.06	76.2569934774922	
293.15	.0876	76.6802033366276	
293.15	.1214	77.200831727548	
293.15	.1388	77.4703850693863	
293.15	.1661	77.8973181513876	
293.15	.1861	78.2134185731468	
293.15	.2119	78.6172031954084	
293.15	.2272	78.8581469296383	
293.15	.2499	79.2222705557695	
293.15	.2726	79.5881954464282	
293.15	.2949	79.9728050170306	
293.15	.314	80.3245231376299	
293.15	.3353	80.8501248537385	
293.15	.3562	81.3382216489532	
293.15	.3851	81.873148068349	
293.15	.4069	82.2659046272325	
293.15	.426	82.5475662865714	
293.15	.4405	82.7652180658971	
293.15	.4693	83.1517882916359	
293.15	.4858	83.3497403846875	
293.15	.5111	83.6660229135941	
293.15	.5381	84.000956772368	
293.15	.5586	84.2552004940746	
293.15	.5849	84.587791159217	
293.15	.6026	84.7583254788824	
293.15	.6299	85.0594006991222	
293.15	.668	85.4689607224683	
293.15	.7037	85.8317889835128	
293.15	.731	86.0820067887937	
293.15	.7714	86.4343313100481	
293.15	.8141	86.8580556668761	
293.15	.8293	86.9552212853596	
293.15	.8679	87.3176356016478	
293.15	.9125	87.7405120567993	
293.15	.9573	88.1811927045357	
298.15	0	75.345305544	
298.15	.0166	75.5620897036396	
298.15	.0321	75.798015207178	
298.15	.0392	75.9078561436782	
298.15	.06	76.2168793304761	
298.15	.0876	76.6362016897244	
298.15	.1214	77.1546898897076	
298.15	.1388	77.4185294890286	
298.15	.1661	77.845185522958	
298.15	.1861	78.1629522736731	
298.15	.2119	78.5664848429694	
298.15	.2272	78.8129311825396	
298.15	.2499	79.1768579615845	
298.15	.2726	79.5577892590562	
298.15	.2949	79.9747134481251	
298.15	.314	80.4854096830913	
298.15	.3353	80.8885846220068	
298.15	.3562	81.2416960969524	
298.15	.3851	81.6790576810642	
298.15	.4069	81.9930815395193	
298.15	.426	82.2522716356682	
298.15	.4405	82.4318826697539	
298.15	.4693	82.7871306921586	
298.15	.4858	82.9661959544442	
298.15	.5111	83.2727771143991	
298.15	.5381	83.5818500742877	
298.15	.5586	83.816527814803	
298.15	.5849	84.1369997331686	
298.15	.6026	84.3283261141807	
298.15	.6299	84.5969008574881	
298.15	.668	84.9992837270517	
298.15	.7037	85.3406993165814	
298.15	.731	85.5947929939846	
298.15	.7714	85.9707594136066	
298.15	.8141	86.3911106459337	
298.15	.8293	86.4996725777252	
298.15	.8679	86.8802550675996	
298.15	.9125	87.2764567501764	
298.15	.9573	87.7136951362091	
308.15	0	75.316481096	
308.15	.0166	75.5349760671649	
308.15	.0321	75.7780697925599	
308.15	.0392	75.8878823034338	
308.15	.06	76.2022923679249	
308.15	.0876	76.6233678760443	
308.15	.1214	77.1343874810578	
308.15	.1388	77.4000096389009	
308.15	.1661	77.8116716903961	
308.15	.1861	78.1237007074159	
308.15	.2119	78.5495787254897	
308.15	.2272	78.8393070350139	
308.15	.2499	79.2695753413789	
308.15	.2726	79.6813143952553	
308.15	.2949	80.0739518650416	
308.15	.314	80.3245231376299	
308.15	.3353	80.5982133715807	
308.15	.3562	80.8285667343892	
308.15	.3851	81.1880090012337	
308.15	.4069	81.4006656919135	
308.15	.426	81.6225704595702	
308.15	.4405	81.7652118774676	
308.15	.4693	82.0499310045665	
308.15	.4858	82.2307396242868	
308.15	.5111	82.5021742351683	
308.15	.5381	82.7975218250233	
308.15	.5586	83.0353298928124	
308.15	.5849	83.3420773524137	
308.15	.6026	83.5248531228601	
308.15	.6299	83.8057827073246	
308.15	.668	84.2192114998815	
308.15	.7037	84.5927635895394	
308.15	.731	84.8598433713065	
308.15	.7714	85.2473377994289	
308.15	.8141	85.679176533286	
308.15	.8293	85.7943068368721	
308.15	.8679	86.1386098142136	
308.15	.9125	86.5569581555042	
308.15	.9573	86.9974373939106	
318.15	0	75.343504016	
318.15	.0166	75.5566669763447	
318.15	.0321	75.7925755486458	
318.15	.0392	75.9005929290439	
318.15	.06	76.2095858492005	
318.15	.0876	76.6288680819072	
318.15	.1214	77.1417701751122	
318.15	.1388	77.4092695639648	
318.15	.1661	77.845185522958	
318.15	.1861	78.2096803287413	
318.15	.2119	78.6491369728699	
318.15	.2272	78.8939427294248	
318.15	.2499	79.214701790072	
318.15	.2726	79.4931761108905	
318.15	.2949	79.7457017167794	
318.15	.314	79.9586977783069	
318.15	.3353	80.2193846541374	
318.15	.3562	80.4463255484662	
318.15	.3851	80.7784782840627	
318.15	.4069	81.0109184237518	
318.15	.426	81.21776256065	
318.15	.4405	81.3691309949917	
318.15	.4693	81.6872445272485	
318.15	.4858	81.8432411277523	
318.15	.5111	82.1208449753428	
318.15	.5381	82.4083513196631	
318.15	.5586	82.6387217170326	
318.15	.5849	82.9194603904934	
318.15	.6026	83.1069664163189	
318.15	.6299	83.3919670595467	
318.15	.668	83.7862918345409	
318.15	.7037	84.1509883661492	
318.15	.731	84.4180478116067	
318.15	.7714	84.8087114758901	
318.15	.8141	85.2603917611403	
318.15	.8293	85.3849427908412	
318.15	.8679	85.7794084094397	
318.15	.9125	86.220624492906	
318.15	.9573	86.7057875347711	
328.15	0	75.401152912	
328.15	.0166	75.6108942492942	
328.15	.0321	75.8505985729893	
328.15	.0392	75.9568828424602	
328.15	.06	76.2661103290867	
328.15	.0876	76.6802033366276	
328.15	.1214	77.200831727548	
328.15	.1388	77.4685330843735	
328.15	.1661	77.8917325126273	
328.15	.1861	78.2040729621332	
328.15	.2119	78.5946617054355	
328.15	.2272	78.8072792141523	
328.15	.2499	79.0992781131851	
328.15	.2726	79.3601490411376	
328.15	.2949	79.5949356603101	
328.15	.314	79.8035571808977	
328.15	.3353	80.0520846621701	
328.15	.3562	80.295745687345	
328.15	.3851	80.634851397472	
328.15	.4069	80.866711934532	
328.15	.426	81.0515370949098	
328.15	.4405	81.1730513502016	
328.15	.4693	81.4921034334741	
328.15	.4858	81.649491879485	
328.15	.5111	81.9281942555351	
328.15	.5381	82.2167596862549	
328.15	.5586	82.4344084143581	
328.15	.5849	82.7162017564269	
328.15	.6026	82.9111451093891	
328.15	.6299	83.1911447598898	
328.15	.668	83.5984210363743	
328.15	.7037	83.9701687398313	
328.15	.731	84.2343104059372	
328.15	.7714	84.6465652520227	
328.15	.8141	85.0949717761428	
328.15	.8293	85.2400908976302	
328.15	.8679	85.6399537464099	
328.15	.9125	86.0907741548143	
328.15	.9573	86.5642515737181	
333.15	0	75.482221672	
333.15	.0166	75.6615063707138	
333.15	.0321	75.8977422802683	
333.15	.0392	76.0040937375835	
333.15	.06	76.3189880683352	
333.15	.0876	76.7352053952566	
333.15	.1214	77.2395908713339	
333.15	.1388	77.505572784629	
333.15	.1661	77.9140750676686	
333.15	.1861	78.2115494509441	
333.15	.2119	78.5852694179468	
333.15	.2272	78.7790193722156	
333.15	.2499	79.0765718160926	
333.15	.2726	79.3601490411376	
333.15	.2949	79.6197452645392	
333.15	.314	79.8380328692108	
333.15	.3353	80.1020823609189	
333.15	.5381	82.2925980411457	
333.15	.5586	82.5105251349624	
333.15	.5849	82.8047500722579	
333.15	.6026	82.9999712692335	
333.15	.6299	83.2763420991382	
333.15	.668	83.6719356965264	
333.15	.7037	84.0215379518534	
333.15	.731	84.3003732933689	
333.15	.7714	84.7110079820212	
333.15	.8141	85.1410381010788	
333.15	.8293	85.2799776508332	
333.15	.8679	85.6822127352068	
333.15	.9125	86.1333480361558	
333.15	.9573	86.6157191959192	
