Measured thermophysical data. Phase equilibrium for the binary azeotropic mixture of trifluoroiodomethane (R13I1) + 1,1,2,2-tetrafluoroethane (R134) at temperatures from 258.150 to 283.150 K
Source: Fluid Phase Equilib., 2012, 10.1016/j.fluid.2011.11.013
Compound 1: trifluoroiodomethane, CF3I, purity 99.5%
Compound 2: 1,1,2,2-tetrafluoroethane, C2H2F4, purity 99%

System: trifluoroiodomethane; phases: Liquid, Gas
Property: Vapor or sublimation pressure, kPa (Liquid); method: Closed cell (Static) method
Temperature, K	Vapor or sublimation pressure, kPa	uncertainty
258.15	133	.5
263.15	160.4	.5
273.15	228.4	.5
283.15	316.4	.5

System: 1,1,2,2-tetrafluoroethane; phases: Liquid, Gas
Property: Vapor or sublimation pressure, kPa (Liquid); method: Closed cell (Static) method
Temperature, K	Vapor or sublimation pressure, kPa	uncertainty
258.15	124.3	.5
263.15	153	.5
273.15	225.9	.5
283.15	323.4	.5

System: 1,1,2,2-tetrafluoroethane + trifluoroiodomethane; phases: Gas, Liquid
Property: Vapor or sublimation pressure, kPa (Gas); method: Closed cell (Static) method
Mole fraction of trifluoroiodomethane	Temperature, K	Vapor or sublimation pressure, kPa	uncertainty
0	258.15	124.3	.5
.175	258.15	160.4	.5
.328	258.15	171.3	.5
.474	258.15	174.8	.5
.54	258.15	175	.5
.682	258.15	172.8	.5
.855	258.15	161	.5
1	258.15	133	.5
0	263.15	153	.5
.172	263.15	194.1	.5
.328	263.15	207.4	.5
.473	263.15	211.3	.5
.54	263.15	211.5	.5
.682	263.15	208.4	.5
.854	263.15	193.7	.5
1	263.15	160.4	.5
0	273.15	225.9	.5
.16	273.15	277.6	.5
.325	273.15	296.4	.5
.475	273.15	301.8	.5
.54	273.15	301.6	.5
.683	273.15	295.9	.5
.862	273.15	274	.5
1	273.15	228.4	.5
0	283.15	323.4	.5
.16	283.15	387.4	.5
.329	283.15	412.4	.5
.474	283.15	418.7	.5
.553	283.15	418.4	.5
.69	283.15	408.4	.5
.861	283.15	377.3	.5
1	283.15	316.4	.5

System: 1,1,2,2-tetrafluoroethane + trifluoroiodomethane; phases: Gas, Liquid
Property: Mole fraction of trifluoroiodomethane (Gas); method: Chromatography
Mole fraction of trifluoroiodomethane	Temperature, K	Mole fraction of trifluoroiodomethane	uncertainty
0	258.15	0	.005
.175	258.15	.325	.005
.328	258.15	.434	.005
.474	258.15	.506	.005
.54	258.15	.532	.005
.682	258.15	.601	.005
.855	258.15	.736	.005
1	258.15	1	.005
0	263.15	0	.005
.172	263.15	.311	.005
.328	263.15	.425	.005
.473	263.15	.5	.005
.54	263.15	.527	.005
.682	263.15	.6	.005
.854	263.15	.738	.005
1	263.15	1	.005
0	273.15	0	.005
.16	273.15	.286	.005
.325	273.15	.416	.005
.475	273.15	.489	.005
.54	273.15	.521	.005
.683	273.15	.601	.005
.862	273.15	.744	.005
1	273.15	1	.005
0	283.15	0	.005
.16	283.15	.271	.005
.329	283.15	.399	.005
.474	283.15	.482	.005
.553	283.15	.517	.005
.69	283.15	.603	.005
.861	283.15	.75	.005
1	283.15	1	.005

System: 1,1,2,2-tetrafluoroethane + trifluoroiodomethane; phases: Liquid, Gas
Property: Azeotropic composition: mole fraction of trifluoroiodomethane (Liquid); method: By X=Y
Temperature, K	Azeotropic composition: mole fraction of trifluoroiodomethane	uncertainty
258.15	.528	.005
263.15	.52	.005
273.15	.499	.005
283.15	.486	.005

System: 1,1,2,2-tetrafluoroethane + trifluoroiodomethane; phases: Liquid, Gas
Property: Azeotropic pressure, kPa (Liquid); method: By X=Y
Temperature, K	Azeotropic pressure, kPa	uncertainty
258.15	175.3	.5
263.15	211.7	.5
273.15	301.9	.5
283.15	419.3	.5
