Measured thermophysical data. Densities, speeds of sound and 1H NMR spectroscopic studies for binary mixtures  of 1-hexyl-3-methylimidazolium based ionic liquids with ethylene glycol  monomethyl ether at temperature from T = (288.15 318.15) K
Source: Fluid Phase Equilib., 2012, 10.1016/j.fluid.2012.08.002
Compound 1: ethylene glycol methyl ether, C3H8O2, purity 99.5%
Compound 2: 3-hexyl-1-methyl-1H-imidazolium bromide, C10H19BrN2, purity 99%
Compound 3: 1-hexyl-3-methylimidazolium tetrafluoroborate, C10H19BF4N2, purity 99%
Compound 4: 1-hexyl-3-methylimidazolium hexafluorophosphate, C10H19F6N2P, purity 99%

System: ethylene glycol methyl ether; phases: Liquid
Fixed: Pressure, kPa = 101.325
Property: Mass density, kg/m3 (Liquid); method: Vibrating tube method
Temperature, K	Mass density, kg/m3	uncertainty
288.15	969.374	.005
293.15	964.809	.005
298.15	960.222	.005
303.15	955.615	.005
308.15	950.971	.005
313.15	946.306	.005
318.15	941.609	.005

System: ethylene glycol methyl ether; phases: Liquid
Fixed: Pressure, kPa = 101.325
Property: Speed of sound, m/s (Liquid); method: Sing-around technique in a fixed-path interferometer
Temperature, K	Speed of sound, m/s	uncertainty
288.15	1376.47	.05
293.15	1359.04	.05
298.15	1341.72	.05
303.15	1324.47	.05
308.15	1307.14	.05
313.15	1289.95	.05
318.15	1272.81	.05

System: 3-hexyl-1-methyl-1H-imidazolium bromide; phases: Liquid
Fixed: Pressure, kPa = 101.325
Property: Mass density, kg/m3 (Liquid); method: Vibrating tube method
Temperature, K	Mass density, kg/m3	uncertainty
288.15	1231.026	.005
293.15	1227.492	.005
298.15	1223.82	.005
303.15	1220.473	.005
308.15	1216.793	.005
313.15	1213.278	.005
318.15	1209.945	.005

System: 3-hexyl-1-methyl-1H-imidazolium bromide; phases: Liquid
Fixed: Pressure, kPa = 101.325
Property: Speed of sound, m/s (Liquid); method: Sing-around technique in a fixed-path interferometer
Temperature, K	Speed of sound, m/s	uncertainty
288.15	1639.85	.05
293.15	1610.6	.05
298.15	1587.53	.05
303.15	1568.11	.05
308.15	1551.24	.05
313.15	1533.46	.05
318.15	1517.79	.05

System: 1-hexyl-3-methylimidazolium tetrafluoroborate; phases: Liquid
Fixed: Pressure, kPa = 101.325
Property: Mass density, kg/m3 (Liquid); method: Vibrating tube method
Temperature, K	Mass density, kg/m3	uncertainty
288.15	1155.321	.005
293.15	1151.79	.005
298.15	1148.263	.005
303.15	1144.738	.005
308.15	1141.231	.005
313.15	1137.827	.005
318.15	1134.429	.005

System: 1-hexyl-3-methylimidazolium tetrafluoroborate; phases: Liquid
Fixed: Pressure, kPa = 101.325
Property: Speed of sound, m/s (Liquid); method: Sing-around technique in a fixed-path interferometer
Temperature, K	Speed of sound, m/s	uncertainty
288.15	1548.76	.05
293.15	1534.97	.05
298.15	1521.87	.05
303.15	1509.25	.05
308.15	1496.99	.05
313.15	1485.04	.05
318.15	1473.31	.05

System: 1-hexyl-3-methylimidazolium hexafluorophosphate; phases: Liquid
Fixed: Pressure, kPa = 101.325
Property: Mass density, kg/m3 (Liquid); method: Vibrating tube method
Temperature, K	Mass density, kg/m3	uncertainty
288.15	1302.745	.005
293.15	1298.713	.005
298.15	1294.688	.005
303.15	1290.662	.005
308.15	1286.639	.005
313.15	1282.631	.005
318.15	1278.722	.005

System: 1-hexyl-3-methylimidazolium hexafluorophosphate; phases: Liquid
Fixed: Pressure, kPa = 101.325
Property: Speed of sound, m/s (Liquid); method: Sing-around technique in a fixed-path interferometer
Temperature, K	Speed of sound, m/s	uncertainty
288.15	1449.14	.05
293.15	1434.11	.05
298.15	1420.27	.05
303.15	1407.27	.05
308.15	1394.94	.05
313.15	1383	.05
318.15	1371.47	.05

System: ethylene glycol methyl ether + 3-hexyl-1-methyl-1H-imidazolium bromide; phases: Liquid
Fixed: Pressure, kPa = 101
Property: Mass density, kg/m3 (Liquid); method: Vibrating tube method
Temperature, K	Mole fraction of 3-hexyl-1-methyl-1H-imidazolium bromide	Mass density, kg/m3	uncertainty
288.15	.0541	1003.156	.005
288.15	.1114	1033.949	.005
288.15	.2063	1075.854	.005
288.15	.3163	1113.654	.005
288.15	.399	1136.605	.005
288.15	.5066	1160.881	.005
288.15	.5919	1177.154	.005
288.15	.7003	1194.677	.005
288.15	.8193	1210.876	.005
288.15	.905	1221.012	.005
293.15	.0541	998.827	.005
293.15	.1114	1029.803	.005
293.15	.2063	1071.893	.005
293.15	.3163	1109.925	.005
293.15	.399	1132.932	.005
293.15	.5066	1157.284	.005
293.15	.5919	1173.581	.005
293.15	.7003	1191.098	.005
293.15	.8193	1207.23	.005
293.15	.905	1217.367	.005
298.15	.0541	994.442	.005
298.15	.1114	1025.656	.005
298.15	.2063	1067.986	.005
298.15	.3163	1106.17	.005
298.15	.399	1129.031	.005
298.15	.5066	1153.698	.005
298.15	.5919	1169.986	.005
298.15	.7003	1187.686	.005
298.15	.8193	1203.656	.005
298.15	.905	1213.602	.005
303.15	.0541	990.104	.005
303.15	.1114	1021.598	.005
303.15	.2063	1064.103	.005
303.15	.3163	1102.404	.005
303.15	.399	1125.437	.005
303.15	.5066	1150.115	.005
303.15	.5919	1166.504	.005
303.15	.7003	1184.244	.005
303.15	.8193	1200.219	.005
303.15	.905	1210.096	.005
308.15	.0541	985.747	.005
308.15	.1114	1017.434	.005
308.15	.2063	1060.191	.005
308.15	.3163	1098.638	.005
308.15	.399	1121.854	.005
308.15	.5066	1146.536	.005
308.15	.5919	1162.924	.005
308.15	.7003	1180.701	.005
308.15	.8193	1196.785	.005
308.15	.905	1206.715	.005
313.15	.0541	981.397	.005
313.15	.1114	1013.098	.005
313.15	.2063	1056.098	.005
313.15	.3163	1094.878	.005
313.15	.399	1118.185	.005
313.15	.5066	1142.964	.005
313.15	.5919	1159.444	.005
313.15	.7003	1177.161	.005
313.15	.8193	1193.351	.005
313.15	.905	1203.338	.005
318.15	.0541	976.988	.005
318.15	.1114	1009.116	.005
318.15	.2063	1052.248	.005
318.15	.3163	1091.119	.005
318.15	.399	1114.514	.005
318.15	.5066	1139.37	.005
318.15	.5919	1155.955	.005
318.15	.7003	1173.694	.005
318.15	.8193	1189.892	.005
318.15	.905	1199.946	.005

System: ethylene glycol methyl ether + 3-hexyl-1-methyl-1H-imidazolium bromide; phases: Liquid
Fixed: Pressure, kPa = 101
Property: Speed of sound, m/s (Liquid); method: Sing-around technique in a fixed-path interferometer
Mole fraction of 3-hexyl-1-methyl-1H-imidazolium bromide	Temperature, K	Speed of sound, m/s	uncertainty
.0541	288.15	1406.24	.05
.1114	288.15	1427.08	.05
.2063	288.15	1455.01	.05
.3163	288.15	1481.24	.05
.399	288.15	1498.52	.05
.5066	288.15	1518.91	.05
.5919	288.15	1532.07	.05
.7003	288.15	1550.14	.05
.8193	288.15	1578.53	.05
.905	288.15	1610.07	.05
.0541	293.15	1389.87	.05
.1114	293.15	1411.45	.05
.2063	293.15	1440.22	.05
.3163	293.15	1467.29	.05
.399	293.15	1485.43	.05
.5066	293.15	1506.03	.05
.5919	293.15	1519.12	.05
.7003	293.15	1535.65	.05
.8193	293.15	1559.95	.05
.905	293.15	1584.72	.05
.0541	298.15	1373.56	.05
.1114	298.15	1395.91	.05
.2063	298.15	1425.33	.05
.3163	298.15	1453.95	.05
.399	298.15	1472.48	.05
.5066	298.15	1493.41	.05
.5919	298.15	1506.44	.05
.7003	298.15	1521.94	.05
.8193	298.15	1543.41	.05
.905	298.15	1563.79	.05
.0541	303.15	1357.36	.05
.1114	303.15	1380.45	.05
.2063	303.15	1410.65	.05
.3163	303.15	1440.69	.05
.399	303.15	1459.56	.05
.5066	303.15	1481	.05
.5919	303.15	1494.1	.05
.7003	303.15	1509.1	.05
.8193	303.15	1528.47	.05
.905	303.15	1545.74	.05
.0541	308.15	1341.1	.05
.1114	308.15	1365.11	.05
.2063	308.15	1396.32	.05
.3163	308.15	1427.47	.05
.399	308.15	1446.67	.05
.5066	308.15	1468.69	.05
.5919	308.15	1482.04	.05
.7003	308.15	1496.74	.05
.8193	308.15	1514.66	.05
.905	308.15	1529.74	.05
.0541	313.15	1324.89	.05
.1114	313.15	1349.88	.05
.2063	313.15	1382.43	.05
.3163	313.15	1414.34	.05
.399	313.15	1433.88	.05
.5066	313.15	1456.53	.05
.5919	313.15	1470.26	.05
.7003	313.15	1484.78	.05
.8193	313.15	1501.82	.05
.905	313.15	1515.17	.05
.0541	318.15	1308.68	.05
.1114	318.15	1335.76	.05
.2063	318.15	1369.37	.05
.3163	318.15	1401.46	.05
.399	318.15	1421.1	.05
.5066	318.15	1444.52	.05
.5919	318.15	1458.69	.05
.7003	318.15	1473.15	.05
.8193	318.15	1489.73	.05
.905	318.15	1501.94	.05

System: ethylene glycol methyl ether + 3-hexyl-1-methyl-1H-imidazolium bromide; phases: Liquid
Fixed: Pressure, kPa = 101
Property: Excess molar volume, m3/mol (Liquid); method: Calculated with densities of this investigation
Mole fraction of 3-hexyl-1-methyl-1H-imidazolium bromide	Temperature, K	Excess molar volume, m3/mol	uncertainty
.0541	288.15	-.000000033	-.000000000165
.1114	288.15	-.000000093	-.000000000465
.2063	288.15	-.000000192	-.00000000096
.3163	288.15	-.00000026	-.0000000013
.399	288.15	-.000000286	-.00000000143
.5066	288.15	-.000000243	-.000000001215
.5919	288.15	-.000000216	-.00000000108
.7003	288.15	-.000000159	-.000000000795
.8193	288.15	-.000000092	-.00000000046
.905	288.15	-.000000047	-.000000000235
.0541	293.15	-.000000047	-.000000000235
.1114	293.15	-.000000117	-.000000000585
.2063	293.15	-.000000223	-.000000001115
.3163	293.15	-.000000304	-.00000000152
.399	293.15	-.000000328	-.00000000164
.5066	293.15	-.000000283	-.000000001415
.5919	293.15	-.000000251	-.000000001255
.7003	293.15	-.000000182	-.00000000091
.8193	293.15	-.000000093	-.000000000465
.905	293.15	-.000000039	-.000000000195
.0541	298.15	-.000000059	-.000000000295
.1114	298.15	-.000000145	-.000000000725
.2063	298.15	-.000000267	-.000000001335
.3163	298.15	-.000000354	-.00000000177
.399	298.15	-.000000355	-.000000001775
.5066	298.15	-.000000338	-.00000000169
.5919	298.15	-.000000298	-.00000000149
.7003	298.15	-.000000245	-.000000001225
.8193	298.15	-.000000124	-.00000000062
.905	298.15	-.000000033	-.000000000165
.0541	303.15	-.000000074	-.00000000037
.1114	303.15	-.000000178	-.00000000089
.2063	303.15	-.000000304	-.00000000152
.3163	303.15	-.000000388	-.00000000194
.399	303.15	-.000000398	-.00000000199
.5066	303.15	-.000000368	-.00000000184
.5919	303.15	-.000000329	-.000000001645
.7003	303.15	-.000000268	-.00000000134
.8193	303.15	-.000000132	-.00000000066
.905	303.15	-.000000019	-.000000000095
.0541	308.15	-.000000094	-.00000000047
.1114	308.15	-.000000211	-.000000001055
.2063	308.15	-.000000353	-.000000001765
.3163	308.15	-.000000443	-.000000002215
.399	308.15	-.000000466	-.00000000233
.5066	308.15	-.000000428	-.00000000214
.5919	308.15	-.000000382	-.00000000191
.7003	308.15	-.000000318	-.00000000159
.8193	308.15	-.000000187	-.000000000935
.905	308.15	-.000000076	-.00000000038
.0541	313.15	-.000000116	-.00000000058
.1114	313.15	-.000000227	-.000000001135
.2063	313.15	-.00000038	-.0000000019
.3163	313.15	-.000000492	-.00000000246
.399	313.15	-.000000516	-.00000000258
.5066	313.15	-.000000477	-.000000002385
.5919	313.15	-.000000434	-.00000000217
.7003	313.15	-.000000349	-.000000001745
.8193	313.15	-.000000221	-.000000001105
.905	313.15	-.000000109	-.000000000545
.0541	318.15	-.000000133	-.000000000665
.1114	318.15	-.000000275	-.000000001375
.2063	318.15	-.000000428	-.00000000214
.3163	318.15	-.000000534	-.00000000267
.399	318.15	-.000000556	-.00000000278
.5066	318.15	-.00000051	-.00000000255
.5919	318.15	-.000000468	-.00000000234
.7003	318.15	-.000000371	-.000000001855
.8193	318.15	-.000000226	-.00000000113
.905	318.15	-.000000112	-.00000000056

System: ethylene glycol methyl ether + 1-hexyl-3-methylimidazolium tetrafluoroborate; phases: Liquid
Fixed: Pressure, kPa = 101
Property: Mass density, kg/m3 (Liquid); method: Vibrating tube method
Temperature, K	Mole fraction of 1-hexyl-3-methylimidazolium tetrafluoroborate	Mass density, kg/m3	uncertainty
288.15	.053	996.474	.005
288.15	.1088	1020.999	.005
288.15	.2016	1052.831	.005
288.15	.3088	1077.881	.005
288.15	.4106	1093.474	.005
288.15	.5023	1103.614	.005
288.15	.5962	1112.497	.005
288.15	.7006	1122.489	.005
288.15	.7995	1132.987	.005
288.15	.9099	1145.621	.005
293.15	.053	991.791	.005
293.15	.1088	1016.447	.005
293.15	.2016	1048.365	.005
293.15	.3088	1073.643	.005
293.15	.4106	1089.745	.005
293.15	.5023	1100.218	.005
293.15	.5962	1109.266	.005
293.15	.7006	1119.438	.005
293.15	.7995	1130.015	.005
293.15	.9099	1142.38	.005
298.15	.053	987.817	.005
298.15	.1088	1012.376	.005
298.15	.2016	1044.225	.005
298.15	.3088	1069.467	.005
298.15	.4106	1085.859	.005
298.15	.5023	1096.663	.005
298.15	.5962	1106.013	.005
298.15	.7006	1116.365	.005
298.15	.7995	1126.8	.005
298.15	.9099	1138.925	.005
303.15	.053	983.383	.005
303.15	.1088	1008.205	.005
303.15	.2016	1040.162	.005
303.15	.3088	1065.507	.005
303.15	.4106	1081.935	.005
303.15	.5023	1092.853	.005
303.15	.5962	1102.489	.005
303.15	.7006	1113.084	.005
303.15	.7995	1123.59	.005
303.15	.9099	1135.86	.005
308.15	.053	979.101	.005
308.15	.1088	1004.1	.005
308.15	.2016	1036.074	.005
308.15	.3088	1061.469	.005
308.15	.4106	1077.938	.005
308.15	.5023	1089.118	.005
308.15	.5962	1098.812	.005
308.15	.7006	1109.56	.005
308.15	.7995	1120.087	.005
308.15	.9099	1132.305	.005
313.15	.053	974.997	.005
313.15	.1088	999.809	.005
313.15	.2016	1031.818	.005
313.15	.3088	1057.435	.005
313.15	.4106	1073.995	.005
313.15	.5023	1085.318	.005
313.15	.5962	1095.089	.005
313.15	.7006	1105.895	.005
313.15	.7995	1116.483	.005
313.15	.9099	1128.74	.005
318.15	.053	970.346	.005
318.15	.1088	995.598	.005
318.15	.2016	1027.873	.005
318.15	.3088	1053.414	.005
318.15	.4106	1070.017	.005
318.15	.5023	1080.991	.005
318.15	.5962	1090.771	.005
318.15	.7006	1101.496	.005
318.15	.7995	1112.275	.005
318.15	.9099	1124.835	.005

System: ethylene glycol methyl ether + 1-hexyl-3-methylimidazolium tetrafluoroborate; phases: Liquid
Fixed: Pressure, kPa = 101
Property: Speed of sound, m/s (Liquid); method: Sing-around technique in a fixed-path interferometer
Mole fraction of 1-hexyl-3-methylimidazolium tetrafluoroborate	Temperature, K	Speed of sound, m/s	uncertainty
.053	288.15	1409.59	.05
.1088	288.15	1431.86	.05
.2016	288.15	1457.58	.05
.3088	288.15	1478.48	.05
.4106	288.15	1491.65	.05
.5023	288.15	1503.44	.05
.5962	288.15	1512.29	.05
.7006	288.15	1519.96	.05
.7995	288.15	1529.09	.05
.9099	288.15	1540.02	.05
.053	293.15	1392.36	.05
.1088	293.15	1415.81	.05
.2016	293.15	1442.28	.05
.3088	293.15	1463.83	.05
.4106	293.15	1477.64	.05
.5023	293.15	1490.09	.05
.5962	293.15	1499.49	.05
.7006	293.15	1508.18	.05
.7995	293.15	1518.08	.05
.9099	293.15	1527.24	.05
.053	298.15	1375.79	.05
.1088	298.15	1399.8	.05
.2016	298.15	1427.09	.05
.3088	298.15	1449.52	.05
.4106	298.15	1463.83	.05
.5023	298.15	1476.89	.05
.5962	298.15	1487.06	.05
.7006	298.15	1496.46	.05
.7995	298.15	1505.84	.05
.9099	298.15	1514.7	.05
.053	303.15	1359.26	.05
.1088	303.15	1383.96	.05
.2016	303.15	1411.94	.05
.3088	303.15	1435.46	.05
.4106	303.15	1450.14	.05
.5023	303.15	1463.93	.05
.5962	303.15	1474.74	.05
.7006	303.15	1484.45	.05
.7995	303.15	1493.63	.05
.9099	303.15	1502.43	.05
.053	308.15	1342.8	.05
.1088	308.15	1368.23	.05
.2016	308.15	1396.97	.05
.3088	308.15	1421.45	.05
.4106	308.15	1436.91	.05
.5023	308.15	1450.98	.05
.5962	308.15	1462.22	.05
.7006	308.15	1472.23	.05
.7995	308.15	1481.49	.05
.9099	308.15	1490.35	.05
.053	313.15	1326.52	.05
.1088	313.15	1352.35	.05
.2016	313.15	1382.08	.05
.3088	313.15	1407.41	.05
.4106	313.15	1424.11	.05
.5023	313.15	1438.4	.05
.5962	313.15	1449.72	.05
.7006	313.15	1460.12	.05
.7995	313.15	1469.48	.05
.9099	313.15	1478.5	.05
.053	318.15	1309.82	.05
.1088	318.15	1336.22	.05
.2016	318.15	1367.26	.05
.3088	318.15	1393.3	.05
.4106	318.15	1411.59	.05
.5023	318.15	1425.59	.05
.5962	318.15	1437.4	.05
.7006	318.15	1448.23	.05
.7995	318.15	1457.71	.05
.9099	318.15	1466.87	.05

System: ethylene glycol methyl ether + 1-hexyl-3-methylimidazolium tetrafluoroborate; phases: Liquid
Fixed: Pressure, kPa = 101
Property: Excess molar volume, m3/mol (Liquid); method: Calculated with densities of this investigation
Mole fraction of 1-hexyl-3-methylimidazolium tetrafluoroborate	Temperature, K	Excess molar volume, m3/mol	uncertainty
.053	288.15	-.000000164	-.00000000082
.1088	288.15	-.000000389	-.000000001945
.2016	288.15	-.000000652	-.00000000326
.3088	288.15	-.000000583	-.000000002915
.4106	288.15	-.000000144	-.00000000072
.5023	288.15	.000000423	.000000002115
.5962	288.15	.000000969	.000000004845
.7006	288.15	.000001301	.000000006505
.7995	288.15	.000001193	.000000005965
.9099	288.15	.000000606	.00000000303
.053	293.15	-.000000146	-.00000000073
.1088	293.15	-.000000375	-.000000001875
.2016	293.15	-.000000632	-.00000000316
.3088	293.15	-.000000568	-.00000000284
.4106	293.15	-.000000173	-.000000000865
.5023	293.15	.000000363	.000000001815
.5962	293.15	.000000894	.00000000447
.7006	293.15	.000001205	.000000006025
.7995	293.15	.000001087	.000000005435
.9099	293.15	.000000549	.000000002745
.053	298.15	-.000000192	-.00000000096
.1088	298.15	-.000000407	-.000000002035
.2016	298.15	-.000000645	-.000000003225
.3088	298.15	-.000000561	-.000000002805
.4106	298.15	-.000000183	-.000000000915
.5023	298.15	.000000322	.00000000161
.5962	298.15	.000000821	.000000004105
.7006	298.15	.000001111	.000000005555
.7995	298.15	.000001021	.000000005105
.9099	298.15	.00000053	.00000000265
.053	303.15	-.000000199	-.000000000995
.1088	303.15	-.000000431	-.000000002155
.2016	303.15	-.000000669	-.000000003345
.3088	303.15	-.00000058	-.0000000029
.4106	303.15	-.00000019	-.00000000095
.5023	303.15	.000000316	.00000000158
.5962	303.15	.000000787	.000000003935
.7006	303.15	.000001049	.000000005245
.7995	303.15	.000000953	.000000004765
.9099	303.15	.00000044	.0000000022
.053	308.15	-.000000223	-.000000001115
.1088	308.15	-.000000465	-.000000002325
.2016	308.15	-.000000692	-.00000000346
.3088	308.15	-.000000592	-.00000000296
.4106	308.15	-.000000188	-.00000000094
.5023	308.15	.000000299	.000000001495
.5962	308.15	.000000777	.000000003885
.7006	308.15	.000001028	.00000000514
.7995	308.15	.000000938	.00000000469
.9099	308.15	.000000442	.00000000221
.053	313.15	-.000000264	-.00000000132
.1088	313.15	-.000000481	-.000000002405
.2016	313.15	-.000000696	-.00000000348
.3088	313.15	-.000000599	-.000000002995
.4106	313.15	-.000000186	-.00000000093
.5023	313.15	.000000301	.000000001505
.5962	313.15	.000000784	.00000000392
.7006	313.15	.000001043	.000000005215
.7995	313.15	.000000955	.000000004775
.9099	313.15	.000000465	.000000002325

System: ethylene glycol methyl ether + 1-hexyl-3-methylimidazolium hexafluorophosphate; phases: Liquid
Fixed: Pressure, kPa = 101
Property: Mass density, kg/m3 (Liquid); method: Vibrating tube method
Temperature, K	Mole fraction of 1-hexyl-3-methylimidazolium hexafluorophosphate	Mass density, kg/m3	uncertainty
288.15	.0503	1020.761	.005
288.15	.1092	1067.447	.005
288.15	.2006	1121.271	.005
288.15	.3032	1165.234	.005
288.15	.4013	1197.384	.005
288.15	.5017	1223.619	.005
288.15	.6054	1245.521	.005
288.15	.7024	1262.686	.005
288.15	.8019	1277.926	.005
288.15	.9094	1292.269	.005
293.15	.0503	1016.218	.005
293.15	.1092	1062.969	.005
293.15	.2006	1116.891	.005
293.15	.3032	1160.903	.005
293.15	.4013	1193.075	.005
293.15	.5017	1219.438	.005
293.15	.6054	1241.447	.005
293.15	.7024	1258.706	.005
293.15	.8019	1273.923	.005
293.15	.9094	1288.204	.005
298.15	.0503	1011.718	.005
298.15	.1092	1058.472	.005
298.15	.2006	1112.456	.005
298.15	.3032	1156.564	.005
298.15	.4013	1188.786	.005
298.15	.5017	1215.234	.005
298.15	.6054	1237.404	.005
298.15	.7024	1254.674	.005
298.15	.8019	1269.911	.005
298.15	.9094	1284.202	.005
303.15	.0503	1007.163	.005
303.15	.1092	1053.96	.005
303.15	.2006	1108.021	.005
303.15	.3032	1152.214	.005
303.15	.4013	1184.471	.005
303.15	.5017	1210.981	.005
303.15	.6054	1233.301	.005
303.15	.7024	1250.631	.005
303.15	.8019	1265.913	.005
303.15	.9094	1280.205	.005
308.15	.0503	1002.494	.005
308.15	.1092	1049.433	.005
308.15	.2006	1103.583	.005
308.15	.3032	1147.844	.005
308.15	.4013	1180.372	.005
308.15	.5017	1206.954	.005
308.15	.6054	1229.342	.005
308.15	.7024	1246.766	.005
308.15	.8019	1262.042	.005
308.15	.9094	1276.203	.005
313.15	.0503	997.703	.005
313.15	.1092	1044.806	.005
313.15	.2006	1099.151	.005
313.15	.3032	1143.591	.005
313.15	.4013	1176.002	.005
313.15	.5017	1202.674	.005
313.15	.6054	1225.276	.005
313.15	.7024	1242.897	.005
313.15	.8019	1258.228	.005
313.15	.9094	1272.234	.005
318.15	.0503	993.086	.005
318.15	.1092	1040.178	.005
318.15	.2006	1094.736	.005
318.15	.3032	1139.135	.005
318.15	.4013	1171.681	.005
318.15	.5017	1198.473	.005
318.15	.6054	1221.287	.005
318.15	.7024	1239.055	.005
318.15	.8019	1254.396	.005
318.15	.9094	1268.468	.005

System: ethylene glycol methyl ether + 1-hexyl-3-methylimidazolium hexafluorophosphate; phases: Liquid
Fixed: Pressure, kPa = 101
Property: Speed of sound, m/s (Liquid); method: Sing-around technique in a fixed-path interferometer
Mole fraction of 1-hexyl-3-methylimidazolium hexafluorophosphate	Temperature, K	Speed of sound, m/s	uncertainty
.0503	288.15	1399.19	.05
.1092	288.15	1411.01	.05
.2006	288.15	1419.75	.05
.3032	288.15	1422.87	.05
.4013	288.15	1424.7	.05
.5017	288.15	1427.45	.05
.6054	288.15	1433.93	.05
.7024	288.15	1434.26	.05
.8019	288.15	1436.71	.05
.9094	288.15	1442.33	.05
.0503	293.15	1382.48	.05
.1092	293.15	1394.83	.05
.2006	293.15	1404.63	.05
.3032	293.15	1408.59	.05
.4013	293.15	1411.29	.05
.5017	293.15	1414.54	.05
.6054	293.15	1421.19	.05
.7024	293.15	1421.43	.05
.8019	293.15	1423.99	.05
.9094	293.15	1428.64	.05
.0503	298.15	1365.83	.05
.1092	298.15	1378.92	.05
.2006	298.15	1389.58	.05
.3032	298.15	1394.51	.05
.4013	298.15	1398.03	.05
.5017	298.15	1401.71	.05
.6054	298.15	1407.77	.05
.7024	298.15	1408.94	.05
.8019	298.15	1411.54	.05
.9094	298.15	1415.75	.05
.0503	303.15	1349.24	.05
.1092	303.15	1362.94	.05
.2006	303.15	1374.65	.05
.3032	303.15	1380.68	.05
.4013	303.15	1385.22	.05
.5017	303.15	1389.03	.05
.6054	303.15	1395.06	.05
.7024	303.15	1396.66	.05
.8019	303.15	1399.39	.05
.9094	303.15	1403.32	.05
.0503	308.15	1332.72	.05
.1092	308.15	1347.06	.05
.2006	308.15	1359.87	.05
.3032	308.15	1367.28	.05
.4013	308.15	1372.3	.05
.5017	308.15	1376.42	.05
.6054	308.15	1382.44	.05
.7024	308.15	1384.48	.05
.8019	308.15	1387.42	.05
.9094	308.15	1391.3	.05
.0503	313.15	1316.25	.05
.1092	313.15	1331.43	.05
.2006	313.15	1345.21	.05
.3032	313.15	1353.73	.05
.4013	313.15	1359.42	.05
.5017	313.15	1363.95	.05
.6054	313.15	1369.96	.05
.7024	313.15	1372.43	.05
.8019	313.15	1375.68	.05
.9094	313.15	1379.55	.05
.0503	318.15	1299.77	.05
.1092	318.15	1315.98	.05
.2006	318.15	1330.77	.05
.3032	318.15	1340.33	.05
.4013	318.15	1346.69	.05
.5017	318.15	1351.62	.05
.6054	318.15	1357.48	.05
.7024	318.15	1360.49	.05
.8019	318.15	1364.1	.05
.9094	318.15	1368.06	.05

System: ethylene glycol methyl ether + 1-hexyl-3-methylimidazolium hexafluorophosphate; phases: Liquid
Fixed: Pressure, kPa = 101
Property: Excess molar volume, m3/mol (Liquid); method: Calculated with densities of this investigation
Mole fraction of 1-hexyl-3-methylimidazolium hexafluorophosphate	Temperature, K	Excess molar volume, m3/mol	uncertainty
.0503	288.15	-.000000423	-.000000002115
.1092	288.15	-.000000655	-.000000003275
.2006	288.15	-.00000072	-.0000000036
.3032	288.15	-.000000618	-.00000000309
.4013	288.15	-.000000486	-.00000000243
.5017	288.15	-.000000352	-.00000000176
.6054	288.15	-.000000201	-.000000001005
.7024	288.15	-.000000086	-.00000000043
.8019	288.15	-.000000022	-.00000000011
.9094	288.15	-.00000001	-.00000000005
.0503	293.15	-.000000428	-.00000000214
.1092	293.15	-.000000665	-.000000003325
.2006	293.15	-.000000734	-.00000000367
.3032	293.15	-.00000063	-.00000000315
.4013	293.15	-.000000492	-.00000000246
.5017	293.15	-.000000365	-.000000001825
.6054	293.15	-.000000221	-.000000001105
.7024	293.15	-.000000113	-.000000000565
.8019	293.15	-.00000004	-.0000000002
.9094	293.15	-.00000001	-.00000000005
.0503	298.15	-.000000438	-.00000000219
.1092	298.15	-.000000675	-.000000003375
.2006	298.15	-.000000744	-.00000000372
.3032	298.15	-.000000642	-.00000000321
.4013	298.15	-.000000501	-.000000002505
.5017	298.15	-.000000376	-.00000000188
.6054	298.15	-.000000246	-.00000000123
.7024	298.15	-.000000132	-.00000000066
.8019	298.15	-.000000055	-.000000000275
.9094	298.15	-.000000021	-.000000000105
.0503	303.15	-.000000445	-.000000002225
.1092	303.15	-.000000686	-.00000000343
.2006	303.15	-.000000756	-.00000000378
.3032	303.15	-.000000654	-.00000000327
.4013	303.15	-.000000508	-.00000000254
.5017	303.15	-.000000381	-.000000001905
.6054	303.15	-.000000263	-.000000001315
.7024	303.15	-.000000151	-.000000000755
.8019	303.15	-.000000074	-.00000000037
.9094	303.15	-.000000032	-.00000000016
.0503	308.15	-.000000446	-.00000000223
.1092	308.15	-.000000698	-.00000000349
.2006	308.15	-.000000771	-.000000003855
.3032	308.15	-.000000666	-.00000000333
.4013	308.15	-.000000543	-.000000002715
.5017	308.15	-.000000419	-.000000002095
.6054	308.15	-.000000302	-.00000000151
.7024	308.15	-.000000198	-.00000000099
.8019	308.15	-.000000114	-.00000000057
.9094	308.15	-.000000043	-.000000000215
.0503	313.15	-.000000437	-.000000002185
.1092	313.15	-.000000702	-.00000000351
.2006	313.15	-.000000787	-.000000003935
.3032	313.15	-.000000692	-.00000000346
.4013	313.15	-.000000546	-.00000000273
.5017	313.15	-.000000422	-.00000000211
.6054	313.15	-.000000326	-.00000000163
.7024	313.15	-.000000244	-.00000000122
.8019	313.15	-.000000163	-.000000000815
.9094	313.15	-.000000057	-.000000000285
.0503	318.15	-.000000446	-.00000000223
.1092	318.15	-.000000707	-.000000003535
.2006	318.15	-.000000804	-.00000000402
.3032	318.15	-.000000692	-.00000000346
.4013	318.15	-.000000549	-.000000002745
.5017	318.15	-.000000428	-.00000000214
.6054	318.15	-.000000351	-.000000001755
.7024	318.15	-.000000283	-.000000001415
.8019	318.15	-.000000195	-.000000000975
.9094	318.15	-.000000092	-.00000000046
