Measured thermophysical data. Experimental and predicted excess molar enthalpies of binary mixtures containing 2,2'-oxybis[propane], benzene, butan-1-ol, 2-methylpropan-1-ol, 2-methyl-2-ene-1-propanol at 303.15 K
Source: Fluid Phase Equilib., 2010, 10.1016/j.fluid.2010.08.024
Compound 1: 1-methyl-1-(1-methylethoxy)ethane, C6H14O, purity 99.5%
Compound 2: 1-butanol, C4H10O, purity 99.5%
Compound 3: 2-methyl-1-propanol, C4H10O, purity 99.5%
Compound 4: 2-methyl-2-propenal, C4H6O, purity 99.5%
Compound 5: benzene, C6H6, purity 99.5%
Compound 6: heptane, C7H16

System: 1-butanol + 1-methyl-1-(1-methylethoxy)ethane; phases: Liquid
Fixed: Pressure, kPa = 101
Fixed: Temperature, K = 303.15
Property: Excess molar enthalpy (molar enthalpy of mixing), kJ/mol (Liquid); method: Heat Flux Calorimetry
Mole fraction of 1-methyl-1-(1-methylethoxy)ethane	Excess molar enthalpy (molar enthalpy of mixing), kJ/mol	uncertainty
.07	.0462	.000924
.113	.0782	.001564
.151	.1046	.002092
.171	.12	.0024
.27	.1907	.003814
.356	.2431	.004862
.495	.3199	.006398
.558	.3608	.007216
.646	.3769	.007538
.71	.3875	.00775
.772	.3792	.007584
.842	.3218	.006436

System: 1-butanol + 1-methyl-1-(1-methylethoxy)ethane; phases: Liquid
Fixed: Pressure, kPa = 101
Fixed: Temperature, K = 303.15
Property: Excess molar enthalpy (molar enthalpy of mixing), kJ/mol (Liquid); method: Derived From Fit of Exp. He Data
Mole fraction of 1-methyl-1-(1-methylethoxy)ethane	Excess molar enthalpy (molar enthalpy of mixing), kJ/mol	uncertainty
.5	.3266	.009798

System: 2-methyl-1-propanol + 1-methyl-1-(1-methylethoxy)ethane; phases: Liquid
Fixed: Pressure, kPa = 101
Fixed: Temperature, K = 303.15
Property: Excess molar enthalpy (molar enthalpy of mixing), kJ/mol (Liquid); method: Heat Flux Calorimetry
Mole fraction of 1-methyl-1-(1-methylethoxy)ethane	Excess molar enthalpy (molar enthalpy of mixing), kJ/mol	uncertainty
.089	.045	.0009
.14	.1179	.002358
.192	.1952	.003904
.254	.2893	.005786
.309	.3654	.007308
.339	.3996	.007992
.375	.4185	.00837
.431	.4445	.00889
.505	.4623	.009246
.601	.4598	.009196
.637	.4606	.009212
.703	.4421	.008842
.769	.414	.00828
.804	.3963	.007926
.844	.3582	.007164
.923	.2381	.004762

System: 2-methyl-1-propanol + 1-methyl-1-(1-methylethoxy)ethane; phases: Liquid
Fixed: Pressure, kPa = 101
Fixed: Temperature, K = 303.15
Property: Excess molar enthalpy (molar enthalpy of mixing), kJ/mol (Liquid); method: Derived From Fit of Exp. He Data
Mole fraction of 1-methyl-1-(1-methylethoxy)ethane	Excess molar enthalpy (molar enthalpy of mixing), kJ/mol	uncertainty
.5	.4669	.014007

System: 2-methyl-2-propenal + 1-methyl-1-(1-methylethoxy)ethane; phases: Liquid
Fixed: Pressure, kPa = 101
Fixed: Temperature, K = 303.15
Property: Excess molar enthalpy (molar enthalpy of mixing), kJ/mol (Liquid); method: Heat Flux Calorimetry
Mole fraction of 1-methyl-1-(1-methylethoxy)ethane	Excess molar enthalpy (molar enthalpy of mixing), kJ/mol	uncertainty
.108	-.0901	-.001802
.193	-.1049	-.002098
.319	-.0786	-.001572
.405	-.0407	-.000814
.472	-.0108	-.000216
.512	.0165	.00033
.637	.0827	.001654
.749	.1208	.002416
.804	.127	.00254
.856	.1192	.002384

System: 1-butanol + benzene; phases: Liquid
Fixed: Pressure, kPa = 101
Fixed: Temperature, K = 303.15
Property: Excess molar enthalpy (molar enthalpy of mixing), kJ/mol (Liquid); method: Heat Flux Calorimetry
Mole fraction of benzene	Excess molar enthalpy (molar enthalpy of mixing), kJ/mol	uncertainty
.143	.3439	.006878
.253	.6116	.012232
.337	.8004	.016008
.38	.8932	.017864
.425	1.0033	.020066
.491	1.1132	.022264
.55	1.1962	.023924
.602	1.2436	.024872
.655	1.2576	.025152
.723	1.16	.0232
.761	1.0303	.020606
.821	.8231	.016462

System: 1-butanol + benzene; phases: Liquid
Fixed: Pressure, kPa = 101
Fixed: Temperature, K = 303.15
Property: Excess molar enthalpy (molar enthalpy of mixing), kJ/mol (Liquid); method: Derived From Fit of Exp. He Data
Mole fraction of benzene	Excess molar enthalpy (molar enthalpy of mixing), kJ/mol	uncertainty
.5	1.1319	.033957

System: benzene + 2-methyl-1-propanol; phases: Liquid
Fixed: Pressure, kPa = 101
Fixed: Temperature, K = 303.15
Property: Excess molar enthalpy (molar enthalpy of mixing), kJ/mol (Liquid); method: Heat Flux Calorimetry
Mole fraction of benzene	Excess molar enthalpy (molar enthalpy of mixing), kJ/mol	uncertainty
.109	.3583	.007166
.169	.5511	.011022
.231	.7606	.015212
.352	1.1094	.022188
.448	1.4003	.028006
.498	1.4925	.02985
.538	1.566	.03132
.602	1.6251	.032502
.699	1.5801	.031602
.795	1.36	.0272
.836	1.1801	.023602
.891	.8836	.017672
.93	.6104	.012208

System: benzene + 2-methyl-1-propanol; phases: Liquid
Fixed: Pressure, kPa = 101
Fixed: Temperature, K = 303.15
Property: Excess molar enthalpy (molar enthalpy of mixing), kJ/mol (Liquid); method: Derived From Fit of Exp. He Data
Mole fraction of benzene	Excess molar enthalpy (molar enthalpy of mixing), kJ/mol	uncertainty
.5	1.4976	.044928

System: 1-methyl-1-(1-methylethoxy)ethane + heptane; phases: Liquid
Fixed: Pressure, kPa = 101
Fixed: Temperature, K = 303.15
Property: Excess molar enthalpy (molar enthalpy of mixing), kJ/mol (Liquid); method: Derived From Fit of Exp. He Data
Mole fraction of heptane	Excess molar enthalpy (molar enthalpy of mixing), kJ/mol	uncertainty
.5	.2564	.007692

System: 1-methyl-1-(1-methylethoxy)ethane + heptane; phases: Liquid
Fixed: Pressure, kPa = 101
Fixed: Temperature, K = 303.15
Property: Excess molar enthalpy (molar enthalpy of mixing), kJ/mol (Liquid); method: Derived From Fit of Exp. He Data
Mole fraction of heptane	Excess molar enthalpy (molar enthalpy of mixing), kJ/mol	uncertainty
.089	.0844	.002532
.167	.1443	.004329
.248	.1922	.005766
.304	.2187	.006561
.39	.2456	.007368
.497	.2559	.007677
.584	.2486	.007458
.694	.2173	.006519
.779	.1753	.005259
.865	.12	.0036
.911	.0837	.002511

System: benzene + 2-methyl-2-propenal; phases: Liquid
Fixed: Pressure, kPa = 101
Fixed: Temperature, K = 303.15
Property: Excess molar enthalpy (molar enthalpy of mixing), kJ/mol (Liquid); method: Heat Flux Calorimetry
Mole fraction of benzene	Excess molar enthalpy (molar enthalpy of mixing), kJ/mol	uncertainty
.1048	.0017	.000034
.1531	.0317	.000634
.1842	.0582	.001164
.2687	.6617	.013234
.3631	.8415	.01683
.3683	.8555	.01711
.5204	1.0007	.020014
.6592	1.0685	.02137
.708	1.0738	.021476
.8382	.9027	.018054
