Measured thermophysical data. Correlation of solubility of hexamethylene-1,6-bisthiosulphate disodium salt dihydrate versus dielectric constants of water + ethanol mixtures
Source: Fluid Phase Equilib., 2014, 10.1016/j.fluid.2014.10.039
Compound 1: hexamethylene-1,6-bisthiosulphate disodium salt dihydrate, C6H16Na2O8S4, purity 99.57%
Compound 2: ethanol, C2H6O, purity 99.9%
Compound 3: water, H2O, purity 99.8%

System: ethanol + water + hexamethylene-1,6-bisthiosulphate disodium salt dihydrate; phases: Liquid, Crystal
Fixed: Pressure, kPa = 101
Property: Mole fraction of hexamethylene-1,6-bisthiosulphate disodium salt dihydrate (Liquid); method: Gravimetric
Temperature, K	Solvent: Mole fraction of water	Mole fraction of hexamethylene-1,6-bisthiosulphate disodium salt dihydrate	uncertainty
278.45	.1	.00006158	.00000073896
283.3	.1	.00007281	.00000087372
288.25	.1	.00008642	.00000103704
293.25	.1	.0001026	.0000012312
298.05	.1	.0001214	.0000014568
303.15	.1	.0001448	.0000017376
307.75	.1	.0001701	.0000020412
313.1	.1	.0002049	.0000024588
317.2	.1	.0002362	.0000028344
322.05	.1	.0002793	.0000033516
327.55	.1	.0003381	.0000040572
278.45	.2	.0001133	.0000013596
283.3	.2	.0001421	.0000017052
288.25	.2	.0001787	.0000021444
293.25	.2	.0002242	.0000026904
298.05	.2	.000279	.000003348
303.15	.2	.0003495	.000004194
307.75	.2	.0004285	.000005142
313.1	.2	.0005405	.000006486
317.2	.2	.0006445	.000007734
322.05	.2	.0007912	.0000094944
327.55	.2	.0009972	.0000119664
278.45	.3	.0002171	.0000026052
283.3	.3	.0002838	.0000034056
288.25	.3	.0003713	.0000044556
293.25	.3	.0004835	.000005802
298.05	.3	.0006221	.0000074652
303.15	.3	.0008078	.0000096936
307.75	.3	.001023	.000012276
313.1	.3	.00133	.00001596
317.2	.3	.001622	.000019464
322.05	.3	.002043	.000024516
327.55	.3	.002661	.000031932
278.45	.4	.0003468	.0000041616
283.3	.4	.0004817	.0000057804
288.25	.4	.0006691	.0000080292
293.25	.4	.0009237	.0000110844
298.05	.4	.001257	.000015084
303.15	.4	.001728	.000020736
307.75	.4	.002292	.000027504
313.1	.4	.003161	.000037932
317.2	.4	.004026	.000048312
322.05	.4	.005328	.000063936
327.55	.4	.007296	.000087552
278.45	.5	.0007546	.0000090552
283.3	.5	.001083	.000012996
288.25	.5	.001555	.00001866
293.25	.5	.002218	.000026616
298.05	.5	.003113	.000037356
303.15	.5	.004409	.000052908
307.75	.5	.006022	.000072264
313.1	.5	.008573	.000102876
317.2	.5	.01118	.00013416
322.05	.5	.01521	.00018252
327.55	.5	.02148	.00025776
