Measured thermophysical data. Liquid-liquid equilibria for ternary system water + toluene+ benzaldehyde at (303.2 to 343.2) K
Source: Fluid Phase Equilib., 2014, 10.1016/j.fluid.2014.09.030
Compound 1: toluene, C7H8, purity 99%
Compound 2: benzaldehyde, C7H6O, purity 99%
Compound 3: p-xylene, C8H10, purity 99%
Compound 4: water, H2O, purity 99.9%

System: benzaldehyde + toluene + water; phases: Liquid mixture 2, Liquid mixture 1
Fixed: Pressure, kPa = 101.3
Property: Mass fraction of water (Liquid mixture 2); method: Chromatography
Property: Mass fraction of water (Liquid mixture 1); method: Chromatography
Property: Mass fraction of benzaldehyde (Liquid mixture 1); method: Chromatography
Temperature, K	Mass fraction of benzaldehyde	Mass fraction of water	uncertainty	Mass fraction of water	uncertainty	Mass fraction of benzaldehyde	uncertainty
303.2	.0969	.0027	.0004	.9979	.0004	.001	.0003
313.2	.1003	.0031	.0004	.9974	.0004	.0011	.0003
313.2	.1946	.004	.0004	.9965	.0004	.0021	.0003
313.2	.2909	.0045	.0004	.9956	.0004	.0031	.0003
313.2	.3902	.0057	.0004	.995	.0004	.0038	.0003
313.2	.4833	.0062	.0004	.9945	.0004	.0044	.0003
313.2	.5764	.0084	.0004	.9934	.0004	.0057	.0003
313.2	.6794	.0107	.0004	.9924	.0004	.0068	.0003
313.2	.7946	.0123	.0004	.9918	.0004	.0076	.0003
313.2	.8829	.0154	.0004	.9915	.0004	.0081	.0003
323.2	.0978	.0041	.0004	.997	.0004	.0014	.0003
303.2	.1956	.0034	.0004	.9973	.0004	.0016	.0003
323.2	.1933	.0051	.0004	.9962	.0004	.0023	.0003
323.2	.2944	.0064	.0004	.9952	.0004	.0034	.0003
323.2	.3846	.0075	.0004	.9943	.0004	.0044	.0003
323.2	.4807	.0101	.0004	.9939	.0004	.0049	.0003
323.2	.5736	.0115	.0004	.9923	.0004	.0066	.0003
323.2	.691	.0127	.0004	.9917	.0004	.0075	.0003
323.2	.7905	.0137	.0004	.9916	.0004	.0079	.0003
323.2	.8608	.0187	.0004	.9917	.0004	.0081	.0003
333.2	.0989	.0046	.0004	.9976	.0004	.0012	.0003
333.2	.1969	.0053	.0004	.9966	.0004	.0022	.0003
303.2	.2935	.0042	.0004	.9967	.0004	.0022	.0003
333.2	.2953	.0061	.0004	.9958	.0004	.0031	.0003
333.2	.3879	.0078	.0004	.995	.0004	.004	.0003
333.2	.4875	.0089	.0004	.994	.0004	.0052	.0003
333.2	.5851	.0097	.0004	.9928	.0004	.0064	.0003
333.2	.6794	.0115	.0004	.9914	.0004	.0079	.0003
333.2	.7788	.0171	.0004	.991	.0004	.0085	.0003
333.2	.8683	.0206	.0004	.9902	.0004	.0095	.0003
343.2	.0984	.0057	.0004	.9974	.0004	.0013	.0003
343.2	.1935	.0066	.0004	.9962	.0004	.0027	.0003
343.2	.2947	.0075	.0004	.995	.0004	.0039	.0003
303.2	.3872	.0052	.0004	.9963	.0004	.0027	.0003
343.2	.391	.0089	.0004	.994	.0004	.005	.0003
343.2	.4787	.0099	.0004	.9934	.0004	.0058	.0003
343.2	.5785	.0129	.0004	.9924	.0004	.0069	.0003
343.2	.6888	.0148	.0004	.9918	.0004	.0077	.0003
343.2	.763	.0168	.0004	.9895	.0004	.0101	.0003
343.2	.8441	.0265	.0004	.9882	.0004	.0115	.0003
303.2	.4932	.0057	.0004	.996	.0004	.0032	.0003
303.2	.5794	.0067	.0004	.9952	.0004	.0041	.0003
303.2	.6509	.0082	.0004	.9944	.0004	.005	.0003
303.2	.7843	.0091	.0004	.9927	.0004	.0069	.0003
303.2	.871	.0108	.0004	.9916	.0004	.0082	.0003
