Measured thermophysical data. Isothermal vapor-liquid equilibrium data for the binary mixture difluoromethane (HFC-32)+  ethyl fluoride (HFC-161) over a temperature range from 253.15 to 303.15 K
Source: Fluid Phase Equilib., 2010, 10.1016/j.fluid.2010.09.016
Compound 1: difluoromethane, CH2F2, purity 99.98%
Compound 2: fluoroethane, C2H5F, purity 99.74%

System: difluoromethane + fluoroethane; phases: Liquid, Gas
Property: Vapor or sublimation pressure, kPa (Liquid); method: Ebulliometric method (Recirculating still)
Mole fraction of difluoromethane	Temperature, K	Vapor or sublimation pressure, kPa	uncertainty
.0847	253.15	239.8	1.6
.3233	253.15	281	1.6
.4527	253.15	306.5	1.6
.5327	253.15	323.7	1.6
.6441	253.15	344.6	1.6
.7256	253.15	357.9	1.6
.7932	253.15	367.8	1.6
.8842	253.15	383.8	1.6
.9333	253.15	390.8	1.6
.9603	253.15	395.6	1.6
.1665	258.15	301	1.6
.2704	258.15	326.4	1.6
.4145	258.15	368.5	1.6
.5088	258.15	390.2	1.6
.6251	258.15	417.4	1.6
.7168	258.15	433.6	1.6
.809	258.15	451.9	1.6
.8761	258.15	465.7	1.6
.9335	258.15	472.9	1.6
.9542	258.15	478.5	1.6
.2523	263.15	382.7	1.6
.4467	263.15	431.7	1.6
.572	263.15	466	1.6
.7098	263.15	504.1	1.6
.7512	263.15	517.7	1.6
.8272	263.15	537.3	1.6
.892	263.15	556.4	1.6
.9284	263.15	563.8	1.6
.9557	263.15	570.2	1.6
.0742	268.15	397.4	1.6
.3058	268.15	481.9	1.6
.4647	268.15	525.8	1.6
.6216	268.15	570.1	1.6
.6897	268.15	598.2	1.6
.7374	268.15	607.3	1.6
.8187	268.15	642.3	1.6
.8716	268.15	653.6	1.6
.9126	268.15	667.1	1.6
.9547	268.15	686.9	1.6
.0256	273.15	447.5	1.6
.184	273.15	539.7	1.6
.3629	273.15	607.1	1.6
.4724	273.15	640.5	1.6
.587	273.15	670.4	1.6
.6265	273.15	682.2	1.6
.7589	273.15	738.4	1.6
.7985	273.15	757.5	1.6
.8972	273.15	785.2	1.6
.9269	273.15	794.3	1.6
.9574	273.15	810.7	1.6
.0092	283.15	600.9	1.6
.0442	283.15	623.7	1.6
.0922	283.15	661.1	1.6
.1906	283.15	715.7	1.6
.25	283.15	750.5	1.6
.4256	283.15	838.6	1.6
.482	283.15	865.4	1.6
.5624	283.15	913	1.6
.6329	283.15	943.9	1.6
.6912	283.15	971.5	1.6
.7453	283.15	999.8	1.6
.7917	283.15	1019.5	1.6
.8497	283.15	1039	1.6
.8876	283.15	1055.5	1.6
.915	283.15	1065.3	1.6
.9349	283.15	1073.5	1.6
.9469	283.15	1080	1.6
.0087	293.15	817.5	1.6
.0432	293.15	844.7	1.6
.0848	293.15	885	1.6
.2371	293.15	984.7	1.6
.3497	293.15	1087.3	1.6
.456	293.15	1153.7	1.6
.6155	293.15	1259.2	1.6
.7257	293.15	1307.9	1.6
.7793	293.15	1342.4	1.6
.83	293.15	1381.8	1.6
.8856	293.15	1409.3	1.6
.9115	293.15	1426.1	1.6
.9541	293.15	1450.5	1.6
.9653	293.15	1460.1	1.6
.0073	303.15	1064.2	1.6
.0289	303.15	1097	1.6
.0801	303.15	1163.4	1.6
.1684	303.15	1252.2	1.6
.2139	303.15	1304.3	1.6
.361	303.15	1416.6	1.6
.4718	303.15	1501.6	1.6
.6396	303.15	1637.6	1.6
.721	303.15	1698	1.6
.7758	303.15	1746.6	1.6
.8317	303.15	1797.6	1.6
.8748	303.15	1837.2	1.6
.9097	303.15	1859.3	1.6
.9518	303.15	1893.1	1.6
.9598	303.15	1906.8	1.6

System: difluoromethane + fluoroethane; phases: Gas, Liquid
Property: Mole fraction of difluoromethane (Gas); method: Chromatography
Mole fraction of difluoromethane	Temperature, K	Mole fraction of difluoromethane	uncertainty
.0847	253.15	.1865	.003
.3233	253.15	.4459	.003
.4527	253.15	.5847	.003
.5327	253.15	.6689	.003
.6441	253.15	.7608	.003
.7256	253.15	.8179	.003
.7932	253.15	.862	.003
.8842	253.15	.9215	.003
.9333	253.15	.9502	.003
.9603	253.15	.9709	.003
.1665	258.15	.2839	.003
.2704	258.15	.42	.003
.4145	258.15	.5683	.003
.5088	258.15	.6583	.003
.6251	258.15	.7658	.003
.7168	258.15	.8208	.003
.809	258.15	.8809	.003
.8761	258.15	.9287	.003
.9335	258.15	.9564	.003
.9542	258.15	.974	.003
.2523	263.15	.3296	.003
.4467	263.15	.5329	.003
.572	263.15	.6566	.003
.7098	263.15	.7764	.003
.7512	263.15	.8204	.003
.8272	263.15	.8748	.003
.892	263.15	.9295	.003
.9284	263.15	.9501	.003
.9557	263.15	.9693	.003
.0742	268.15	.1553	.003
.3058	268.15	.431	.003
.4647	268.15	.5869	.003
.6216	268.15	.71	.003
.6897	268.15	.778	.003
.7374	268.15	.7981	.003
.8187	268.15	.8706	.003
.8716	268.15	.9108	.003
.9126	268.15	.9393	.003
.9547	268.15	.9778	.003
.0256	273.15	.0395	.003
.184	273.15	.2785	.003
.3629	273.15	.4782	.003
.4724	273.15	.584	.003
.587	273.15	.6933	.003
.6265	273.15	.72	.003
.7589	273.15	.8254	.003
.7985	273.15	.8536	.003
.8972	273.15	.9292	.003
.9269	273.15	.9479	.003
.9574	273.15	.9713	.003
.0092	283.15	.015	.003
.0442	283.15	.0904	.003
.0922	283.15	.1694	.003
.1906	283.15	.2898	.003
.25	283.15	.3578	.003
.4256	283.15	.5568	.003
.482	283.15	.6113	.003
.5624	283.15	.6824	.003
.6329	283.15	.7319	.003
.6912	283.15	.776	.003
.7453	283.15	.8183	.003
.7917	283.15	.8521	.003
.8497	283.15	.884	.003
.8876	283.15	.9146	.003
.915	283.15	.9318	.003
.9349	283.15	.949	.003
.9469	283.15	.9606	.003
.0087	293.15	.0141	.003
.0432	293.15	.1004	.003
.0848	293.15	.1469	.003
.2371	293.15	.3348	.003
.3497	293.15	.4972	.003
.456	293.15	.595	.003
.6155	293.15	.7346	.003
.7257	293.15	.7868	.003
.7793	293.15	.8303	.003
.83	293.15	.8728	.003
.8856	293.15	.9076	.003
.9115	293.15	.9253	.003
.9541	293.15	.9632	.003
.9653	293.15	.9741	.003
.0073	303.15	.0151	.003
.0289	303.15	.0658	.003
.0801	303.15	.1698	.003
.1684	303.15	.2785	.003
.2139	303.15	.3168	.003
.361	303.15	.4866	.003
.4718	303.15	.5874	.003
.6396	303.15	.7141	.003
.721	303.15	.7623	.003
.7758	303.15	.8094	.003
.8317	303.15	.8493	.003
.8748	303.15	.8934	.003
.9097	303.15	.9128	.003
.9518	303.15	.9553	.003
.9598	303.15	.9716	.003
