Measured thermophysical data. Vapor-liquid equilibrium data for the binary systems in the process of synthesizing diethyl carbonate
Source: Fluid Phase Equilib., 2010, 10.1016/j.fluid.2009.12.011
Compound 1: carbon monoxide, CO, purity 99.99%
Compound 2: diethyl carbonate, C5H10O3
Compound 3: ethyl ethanoate, C4H8O2

System: diethyl carbonate + carbon monoxide; phases: Liquid, Gas
Property: Vapor or sublimation pressure, kPa (Liquid); method: Closed cell (Static) method
Mole fraction of carbon monoxide	Temperature, K	Vapor or sublimation pressure, kPa	uncertainty
.1373	293.2	11960	10
.1246	293.2	11010	10
.115	293.2	9980	10
.1056	293.2	9010	10
.0975	293.2	8000	10
.0899	293.2	7030	10
.0817	293.2	6010	10
.0726	293.2	5000	10
.0638	293.2	3980	10
.0543	293.2	3030	10
.0458	293.2	1970	10
.1273	313.2	11920	10
.1163	313.2	10980	10
.1081	313.2	9970	10
.1002	313.2	9030	10
.09	313.2	7760	10
.0763	313.2	6000	10
.0683	313.2	4960	10
.0592	313.2	4010	10
.0497	313.2	2990	10
.0401	313.2	2010	10
.1164	333.2	12000	10
.1075	333.2	10980	10
.0998	333.2	9960	10
.0932	333.2	8990	10
.086	333.2	8040	10
.0792	333.2	7090	10
.0707	333.2	5980	10
.0619	333.2	5000	10
.0532	333.2	4000	10
.0452	333.2	3010	10
.0387	333.2	2030	10

System: diethyl carbonate + carbon monoxide; phases: Gas, Liquid
Property: Mole fraction of carbon monoxide (Gas); method: mass balance
Mole fraction of carbon monoxide	Temperature, K	Mole fraction of carbon monoxide	uncertainty
.1373	293.2	.9866	.001
.1246	293.2	.9908	.001
.115	293.2	.9932	.001
.1056	293.2	.9952	.001
.0975	293.2	.9969	.001
.0899	293.2	.9975	.001
.0817	293.2	.9977	.001
.0726	293.2	.9977	.001
.0638	293.2	.9973	.001
.0543	293.2	.997	.001
.0458	293.2	.9965	.001
.1273	313.2	.9843	.001
.1163	313.2	.9894	.001
.1081	313.2	.9915	.001
.1002	313.2	.9934	.001
.09	313.2	.9952	.001
.0763	313.2	.9965	.001
.0683	313.2	.9969	.001
.0592	313.2	.9963	.001
.0497	313.2	.9961	.001
.0401	313.2	.9952	.001
.1164	333.2	.9809	.001
.1075	333.2	.987	.001
.0998	333.2	.9897	.001
.0932	333.2	.9916	.001
.086	333.2	.9925	.001
.0792	333.2	.9936	.001
.0707	333.2	.9945	.001
.0619	333.2	.9953	.001
.0532	333.2	.9954	.001
.0452	333.2	.9952	.001
.0387	333.2	.9946	.001

System: diethyl carbonate + carbon monoxide; phases: Liquid, Gas
Property: Mass density, kg/m3 (Liquid); method: expandable cell with movable piston
Pressure, kPa	Mole fraction of carbon monoxide	Mass density, kg/m3	uncertainty
11960	.1373	927.3	4.6365
11010	.1246	934.9	4.6745
9980	.115	941.3	4.7065
9010	.1056	947.2	4.736
8000	.0975	952.6	4.763
7030	.0899	956.1	4.7805
6010	.0817	959.3	4.7965
5000	.0726	960.7	4.8035
3980	.0638	960.5	4.8025
3030	.0543	959	4.795
1970	.0458	957	4.785
11920	.1273	914.7	4.5735
10980	.1163	922.3	4.6115
9970	.1081	934.1	4.6705
9030	.1002	940.1	4.7005
7760	.09	948.7	4.7435
6000	.0763	955.9	4.7795
4960	.0683	955.7	4.7785
4010	.0592	953.8	4.769
2990	.0497	950.9	4.7545
2010	.0401	949	4.745
12000	.1164	903.2	4.516
10980	.1075	913.7	4.5685
9960	.0998	925.4	4.627
8990	.0932	931.5	4.6575
8040	.086	939.1	4.6955
7090	.0792	944.1	4.7205
5980	.0707	948.2	4.741
5000	.0619	948.2	4.741
4000	.0532	947.9	4.7395
3010	.0452	946.4	4.732
2030	.0387	943.3	4.7165

System: diethyl carbonate + carbon monoxide; phases: Gas, Liquid
Property: Mass density, kg/m3 (Gas); method: expandable cell with movable piston
Pressure, kPa	Mole fraction of carbon monoxide	Mass density, kg/m3	uncertainty
11960	.9866	131.8	.659
11010	.9908	116.7	.5835
9980	.9932	103.4	.517
9010	.9952	90.9	.4545
8000	.9969	79.3	.3965
7030	.9975	69.2	.346
6010	.9977	58.7	.2935
5000	.9977	50.2	.251
3980	.9973	43.4	.217
3030	.997	38.8	.194
1970	.9965	36.7	.1835
11920	.9843	127.5	.6375
10980	.9894	112.2	.561
9970	.9915	98.8	.494
9030	.9934	85.5	.4275
7760	.9952	71.8	.359
6000	.9965	54.3	.2715
4960	.9969	46.7	.2335
4010	.9963	37.6	.188
2990	.9961	33	.165
2010	.9952	28.7	.1435
12000	.9809	120.6	.603
10980	.987	106.4	.532
9960	.9897	92.8	.464
8990	.9916	80.9	.4045
8040	.9925	70.1	.3505
7090	.9936	60	.3
5980	.9945	50.1	.2505
5000	.9953	41.6	.208
4000	.9954	33.9	.1695
3010	.9952	28.5	.1425
2030	.9946	25.3	.1265

System: diethyl carbonate + carbon monoxide; phases: Liquid, Gas
Property: Molar volume, m3/mol (Liquid); method: expandable cell with movable piston
Pressure, kPa	Mole fraction of carbon monoxide	Molar volume, m3/mol	uncertainty
11960	.1373	.00003396	.0000001698
11010	.1246	.00003373	.00000016865
9980	.115	.00003355	.00000016775
9010	.1056	.00003337	.00000016685
8000	.0975	.00003322	.0000001661
7030	.0899	.00003313	.00000016565
6010	.0817	.00003305	.00000016525
5000	.0726	.00003304	.0000001652
3980	.0638	.00003309	.00000016545
3030	.0543	.00003318	.0000001659
1970	.0458	.00003329	.00000016645
11920	.1273	.00003447	.00000017235
10980	.1163	.00003423	.00000017115
9970	.1081	.00003383	.00000016915
9030	.1002	.00003365	.00000016825
7760	.09	.00003339	.00000016695
6000	.0763	.0000332	.000000166
4960	.0683	.00003324	.0000001662
4010	.0592	.00003334	.0000001667
2990	.0497	.00003348	.0000001674
2010	.0401	.00003359	.00000016795
12000	.1164	.00003495	.00000017475
10980	.1075	.00003459	.00000017295
9960	.0998	.00003419	.00000017095
8990	.0932	.00003399	.00000016995
8040	.086	.00003375	.00000016875
7090	.0792	.0000336	.000000168
5980	.0707	.00003349	.00000016745
5000	.0619	.00003353	.00000016765
4000	.0532	.00003357	.00000016785
3010	.0452	.00003366	.0000001683
2030	.0387	.0000338	.000000169

System: diethyl carbonate + carbon monoxide; phases: Gas, Liquid
Property: Molar volume, m3/mol (Gas); method: expandable cell with movable piston
Pressure, kPa	Mole fraction of carbon monoxide	Molar volume, m3/mol	uncertainty
11960	.9866	.00021292	.0000010646
11010	.9908	.00024017	.00000120085
9980	.9932	.00027119	.00000135595
9010	.9952	.00030814	.0000015407
8000	.9969	.00035325	.00000176625
7030	.9975	.00040501	.00000202505
6010	.9977	.00047732	.0000023866
5000	.9977	.00055851	.00000279255
3980	.9973	.00064616	.0000032308
3030	.997	.00072252	.0000036126
1970	.9965	.0007625	.0000038125
11920	.9843	.0002201	.0000011005
10980	.9894	.00024994	.0000012497
9970	.9915	.00028375	.00000141875
9030	.9934	.0003278	.000001639
7760	.9952	.00039008	.0000019504
6000	.9965	.00051573	.00000257865
4960	.9969	.00059958	.0000029979
4010	.9963	.00074508	.0000037254
2990	.9961	.00084896	.0000042448
2010	.9952	.00097561	.00000487805
12000	.9809	.00023277	.00000116385
10980	.987	.00026358	.0000013179
9960	.9897	.00030224	.0000015112
8990	.9916	.00034661	.00000173305
8040	.9925	.00039969	.00000199845
7090	.9936	.0004671	.0000023355
5980	.9945	.00055943	.00000279715
5000	.9953	.00067419	.00000337095
4000	.9954	.00082651	.00000413255
3010	.9952	.00098453	.00000492265
2030	.9946	.00110802	.0000055401

System: ethyl ethanoate + carbon monoxide; phases: Liquid, Gas
Property: Vapor or sublimation pressure, kPa (Liquid); method: Closed cell (Static) method
Mole fraction of carbon monoxide	Temperature, K	Vapor or sublimation pressure, kPa	uncertainty
.1279	293.2	12010	10
.1194	293.2	10960	10
.1125	293.2	10030	10
.1041	293.2	8970	10
.0943	293.2	8000	10
.0842	293.2	7000	10
.0767	293.2	6030	10
.0694	293.2	5000	10
.0618	293.2	3970	10
.0557	293.2	3000	10
.0514	293.2	2010	10
.1224	313.2	11920	10
.1132	313.2	11010	10
.1038	313.2	9980	10
.0944	313.2	8970	10
.0865	313.2	7970	10
.0766	313.2	6970	10
.0678	313.2	5960	10
.0609	313.2	4960	10
.0539	313.2	4010	10
.0467	313.2	2980	10
.0406	313.2	2030	10
.1178	333.2	12000	10
.1058	333.2	11000	10
.0959	333.2	9980	10
.0864	333.2	9030	10
.0771	333.2	8000	10
.0663	333.2	7010	10
.0566	333.2	5970	10
.0489	333.2	4960	10
.0418	333.2	3960	10
.0351	333.2	2970	10
.0297	333.2	2000	10

System: ethyl ethanoate + carbon monoxide; phases: Gas, Liquid
Property: Mole fraction of carbon monoxide (Gas); method: mass balance
Mole fraction of carbon monoxide	Temperature, K	Mole fraction of carbon monoxide	uncertainty
.1279	293.2	.9911	.001
.1194	293.2	.9928	.001
.1125	293.2	.9938	.001
.1041	293.2	.9946	.001
.0943	293.2	.9953	.001
.0842	293.2	.9958	.001
.0767	293.2	.9962	.001
.0694	293.2	.9962	.001
.0618	293.2	.9962	.001
.0557	293.2	.9959	.001
.0514	293.2	.9952	.001
.1224	313.2	.9897	.001
.1132	313.2	.9912	.001
.1038	313.2	.9925	.001
.0944	313.2	.9935	.001
.0865	313.2	.9947	.001
.0766	313.2	.9952	.001
.0678	313.2	.9955	.001
.0609	313.2	.9953	.001
.0539	313.2	.9953	.001
.0467	313.2	.995	.001
.0406	313.2	.9938	.001
.1178	333.2	.9868	.001
.1058	333.2	.9884	.001
.0959	333.2	.9899	.001
.0864	333.2	.9911	.001
.0771	333.2	.9921	.001
.0663	333.2	.9928	.001
.0566	333.2	.9937	.001
.0489	333.2	.9939	.001
.0418	333.2	.994	.001
.0351	333.2	.9939	.001
.0297	333.2	.9931	.001

System: ethyl ethanoate + carbon monoxide; phases: Liquid, Gas
Property: Mass density, kg/m3 (Liquid); method: expandable cell with movable piston
Pressure, kPa	Mole fraction of carbon monoxide	Mass density, kg/m3	uncertainty
12010	.1279	856.6	4.283
10960	.1194	868.9	4.3445
10030	.1125	880.6	4.403
8970	.1041	893.3	4.4665
8000	.0943	904.2	4.521
7000	.0842	915.6	4.578
6030	.0767	924.2	4.621
5000	.0694	932.6	4.663
3970	.0618	938.9	4.6945
3000	.0557	945.1	4.7255
2010	.0514	951.4	4.757
11920	.1224	835.6	4.178
11010	.1132	846.2	4.231
9980	.1038	862.6	4.313
8970	.0944	877.4	4.387
7970	.0865	888.5	4.4425
6970	.0766	900.7	4.5035
5960	.0678	912.2	4.561
4960	.0609	922.1	4.6105
4010	.0539	928.6	4.643
2980	.0467	935	4.675
2030	.0406	940.2	4.701
12000	.1178	817.5	4.0875
11000	.1058	830.5	4.1525
9980	.0959	847.3	4.2365
9030	.0864	858.9	4.2945
8000	.0771	873.3	4.3665
7010	.0663	887.6	4.438
5970	.0566	898.9	4.4945
4960	.0489	909.6	4.548
3960	.0418	917.5	4.5875
2970	.0351	920.3	4.6015
2000	.0297	924	4.62

System: ethyl ethanoate + carbon monoxide; phases: Gas, Liquid
Property: Mass density, kg/m3 (Gas); method: expandable cell with movable piston
Pressure, kPa	Mole fraction of carbon monoxide	Mass density, kg/m3	uncertainty
12010	.9911	127.1	.6355
10960	.9928	117.5	.5875
10030	.9938	111.2	.556
8970	.9946	99.8	.499
8000	.9953	90.3	.4515
7000	.9958	81.9	.4095
6030	.9962	73.4	.367
5000	.9962	65.9	.3295
3970	.9962	56.7	.2835
3000	.9959	49.2	.246
2010	.9952	44.7	.2235
11920	.9897	118.4	.592
11010	.9912	111.6	.558
9980	.9925	102.4	.512
8970	.9935	91.6	.458
7970	.9947	81.8	.409
6970	.9952	73.5	.3675
5960	.9955	65.4	.327
4960	.9953	56.8	.284
4010	.9953	50.5	.2525
2980	.995	43.8	.219
2030	.9938	38.5	.1925
12000	.9868	110	.55
11000	.9884	102.2	.511
9980	.9899	92.5	.4625
9030	.9911	82.3	.4115
8000	.9921	72.6	.363
7010	.9928	65.1	.3255
5970	.9937	56.5	.2825
4960	.9939	49	.245
3960	.994	43.6	.218
2970	.9939	37.5	.1875
2000	.9931	33.9	.1695

System: ethyl ethanoate + carbon monoxide; phases: Liquid, Gas
Property: Molar volume, m3/mol (Liquid); method: expandable cell with movable piston
Pressure, kPa	Mole fraction of carbon monoxide	Molar volume, m3/mol	uncertainty
12010	.1279	.0000368	.000000184
10960	.1194	.00003632	.0000001816
10030	.1125	.00003587	.00000017935
8970	.1041	.0000354	.000000177
8000	.0943	.00003501	.00000017505
7000	.0842	.00003462	.0000001731
6030	.0767	.00003433	.00000017165
5000	.0694	.00003406	.0000001703
3970	.0618	.00003386	.0000001693
3000	.0557	.00003366	.0000001683
2010	.0514	.00003346	.0000001673
11920	.1224	.00003775	.00000018875
11010	.1132	.00003732	.0000001866
9980	.1038	.00003666	.0000001833
8970	.0944	.00003608	.0000001804
7970	.0865	.00003567	.00000017835
6970	.0766	.00003523	.00000017615
5960	.0678	.00003482	.0000001741
4960	.0609	.00003448	.0000001724
4010	.0539	.00003427	.00000017135
2980	.0467	.00003407	.00000017035
2030	.0406	.0000339	.0000001695
12000	.1178	.00003861	.00000019305
11000	.1058	.00003806	.0000001903
9980	.0959	.00003736	.0000001868
9030	.0864	.0000369	.0000001845
8000	.0771	.00003633	.00000018165
7010	.0663	.0000358	.000000179
5970	.0566	.00003539	.00000017695
4960	.0489	.00003501	.00000017505
3960	.0418	.00003474	.0000001737
2970	.0351	.00003466	.0000001733
2000	.0297	.00003454	.0000001727

System: ethyl ethanoate + carbon monoxide; phases: Gas, Liquid
Property: Molar volume, m3/mol (Gas); method: expandable cell with movable piston
Pressure, kPa	Mole fraction of carbon monoxide	Molar volume, m3/mol	uncertainty
12010	.9911	.00022058	.0000011029
10960	.9928	.00023855	.00000119275
10030	.9938	.00025203	.00000126015
8970	.9946	.00028081	.00000140405
8000	.9953	.00031029	.00000155145
7000	.9958	.00034209	.00000171045
6030	.9962	.00038189	.00000190945
5000	.9962	.00042512	.0000021256
3970	.9962	.00049384	.0000024692
3000	.9959	.00056956	.0000028478
2010	.9952	.00062655	.00000313275
11920	.9897	.00023684	.0000011842
11010	.9912	.00025121	.00000125605
9980	.9925	.00027365	.00000136825
8970	.9935	.00030596	.0000015298
7970	.9947	.00034265	.00000171325
6970	.9952	.00038122	.0000019061
5960	.9955	.00042841	.00000214205
4960	.9953	.00049294	.0000024647
4010	.9953	.00055472	.0000027736
2980	.995	.00063915	.00000319575
2030	.9938	.00072887	.00000364435
12000	.9868	.00025496	.0000012748
11000	.9884	.0002744	.000001372
9980	.9899	.00030308	.0000015154
9030	.9911	.00034053	.00000170265
8000	.9921	.0003859	.0000019295
7010	.9928	.00043055	.00000215275
5970	.9937	.00049647	.00000248235
4960	.9939	.0005724	.000002862
3960	.994	.00064246	.0000032123
2970	.9939	.00074713	.00000373565
2000	.9931	.00082679	.00000413395
