Measured thermophysical data. Total vapour pressure and excess Gibbs energy of ethanol with 1,8-cineole at temperatures between 278.15 K and 323.15 K
Source: Fluid Phase Equilib., 2011, 10.1016/j.fluid.2011.07.002
Compound 1: ethanol, C2H6O, purity 99.8%
Compound 2: 1,3,3-trimethyl-2-oxabicyclo[2.2.2]octane, C10H18O, purity 99%

System: ethanol; phases: Liquid, Gas
Property: Vapor or sublimation pressure, kPa (Liquid); method: Closed cell (Static) method
Temperature, K	Vapor or sublimation pressure, kPa	uncertainty
278.15	2.264	.002264
283.15	3.147	.003147
288.15	4.327	.004327
293.15	5.876	.005876
298.15	7.798	.007798
303.15	10.41	.01041
308.15	13.707	.013707
313.15	17.899	.017899
318.15	23.064	.023064
323.15	29.462	.029462

System: 1,3,3-trimethyl-2-oxabicyclo[2.2.2]octane; phases: Liquid, Gas
Property: Vapor or sublimation pressure, kPa (Liquid); method: Closed cell (Static) method
Temperature, K	Vapor or sublimation pressure, kPa	uncertainty
278.15	.071	.000071
283.15	.093	.000093
288.15	.13	.00013
293.15	.178	.000178
298.15	.253	.000253
303.15	.346	.000346
308.15	.477	.000477
313.15	.627	.000627
318.15	.828	.000828
323.15	1.101	.001101

System: ethanol + 1,3,3-trimethyl-2-oxabicyclo[2.2.2]octane; phases: Liquid, Gas
Property: Vapor or sublimation pressure, kPa (Liquid); method: Closed cell (Static) method
Temperature, K	Mole fraction of 1,3,3-trimethyl-2-oxabicyclo[2.2.2]octane	Vapor or sublimation pressure, kPa	uncertainty
278.15	.0852	2.102	.002102
278.15	.1107	2.058	.002058
278.15	.2121	1.943	.001943
278.15	.2956	1.852	.001852
278.15	.3929	1.735	.001735
278.15	.5223	1.568	.001568
278.15	.6648	1.356	.001356
278.15	.7894	1.057	.001057
278.15	.8307	.941	.000941
278.15	.9135	.595	.000595
278.15	.9764	.247	.000247
283.15	.0853	2.936	.002936
283.15	.1108	2.892	.002892
283.15	.2122	2.684	.002684
283.15	.2958	2.556	.002556
283.15	.393	2.412	.002412
283.15	.5224	2.172	.002172
283.15	.665	1.879	.001879
283.15	.7895	1.456	.001456
283.15	.8308	1.301	.001301
283.15	.9136	.805	.000805
283.15	.9765	.335	.000335
288.15	.0854	4.029	.004029
288.15	.1109	3.958	.003958
288.15	.2124	3.682	.003682
288.15	.296	3.529	.003529
288.15	.3932	3.304	.003304
288.15	.5226	3.008	.003008
288.15	.6652	2.565	.002565
288.15	.7897	2.001	.002001
288.15	.8309	1.768	.001768
288.15	.9137	1.131	.001131
288.15	.9765	.437	.000437
293.15	.0856	5.484	.005484
293.15	.1111	5.384	.005384
293.15	.2126	5.017	.005017
293.15	.2963	4.745	.004745
293.15	.3934	4.486	.004486
293.15	.5229	4.077	.004077
293.15	.6655	3.481	.003481
293.15	.7899	2.718	.002718
293.15	.8311	2.393	.002393
293.15	.9138	1.525	.001525
293.15	.9765	.607	.000607
298.15	.0859	7.306	.007306
298.15	.1114	7.161	.007161
298.15	.2128	6.673	.006673
298.15	.2967	6.323	.006323
298.15	.3936	5.924	.005924
298.15	.5232	5.381	.005381
298.15	.6659	4.606	.004606
298.15	.7901	3.598	.003598
298.15	.8313	3.181	.003181
298.15	.9139	2.016	.002016
298.15	.9766	.813	.000813
303.15	.0863	9.729	.009729
303.15	.1118	9.55	.00955
303.15	.2132	8.911	.008911
303.15	.2973	8.43	.00843
303.15	.3941	7.911	.007911
303.15	.5237	7.182	.007182
303.15	.6666	6.125	.006125
303.15	.7904	4.817	.004817
303.15	.8316	4.189	.004189
303.15	.9141	2.65	.00265
303.15	.9766	1.068	.001068
308.15	.0869	12.796	.012796
308.15	.1124	12.252	.012252
308.15	.2139	11.723	.011723
308.15	.2982	11.096	.011096
308.15	.3946	10.427	.010427
308.15	.5244	9.483	.009483
308.15	.6675	8.086	.008086
308.15	.7909	6.266	.006266
308.15	.832	5.514	.005514
308.15	.9144	3.454	.003454
308.15	.9767	1.4	.0014
313.15	.0878	16.693	.016693
313.15	.1132	16.395	.016395
313.15	.2148	15.304	.015304
313.15	.2995	14.48	.01448
313.15	.3955	13.618	.013618
313.15	.5255	12.352	.012352
313.15	.6687	10.504	.010504
313.15	.7916	8.138	.008138
313.15	.8326	7.101	.007101
313.15	.9147	4.48	.00448
313.15	.9768	1.808	.001808
318.15	.0891	21.508	.021508
318.15	.1145	21.134	.021134
318.15	.2161	19.717	.019717
318.15	.3014	18.694	.018694
318.15	.3968	17.58	.01758
318.15	.527	15.909	.015909
318.15	.6705	13.459	.013459
318.15	.7926	10.418	.010418
318.15	.8334	9.055	.009055
318.15	.9152	5.701	.005701
318.15	.9769	2.318	.002318
323.15	.0911	27.452	.027452
323.15	.1164	26.964	.026964
323.15	.2181	25.191	.025191
323.15	.3042	23.831	.023831
323.15	.3986	22.418	.022418
323.15	.5291	20.237	.020237
323.15	.6729	17.053	.017053
323.15	.7938	13.155	.013155
323.15	.8346	11.462	.011462
323.15	.9157	7.215	.007215
323.15	.977	2.976	.002976
