Measured thermophysical data. Isothermal vapor-liquid equilibria, excess molar volume and the deviation of refractive indices for binary mixtures of 1-butanol, 1- hexanol, 3-methyl-1-butanol and butyl acetate
Source: Fluid Phase Equilib., 2017, 10.1016/j.fluid.2016.12.025
Compound 1: 1-butanol, C4H10O
Compound 2: butyl acetate, C6H12O2
Compound 3: 3-methyl-1-butanol, C5H12O
Compound 4: 1-hexanol, C6H14O

System: 1-butanol; phases: Liquid
Fixed: Pressure, kPa = 101.325
Property: Mass density, kg/m3 (Liquid); method: Vibrating tube method
Temperature, K	Mass density, kg/m3	uncertainty
298.2	806.01	.06

System: 1-butanol; phases: Liquid
Fixed: Pressure, kPa = 101.325
Property: Refractive index (Na D-line) (Liquid); method: Standard Abbe refractometry
Temperature, K	Refractive index (Na D-line)	uncertainty
298.2	1.3973	.00015

System: butyl acetate; phases: Liquid
Fixed: Pressure, kPa = 101.325
Property: Mass density, kg/m3 (Liquid); method: Vibrating tube method
Temperature, K	Mass density, kg/m3	uncertainty
298.2	876.26	.06

System: butyl acetate; phases: Liquid
Fixed: Pressure, kPa = 101.325
Property: Refractive index (Na D-line) (Liquid); method: Standard Abbe refractometry
Temperature, K	Refractive index (Na D-line)	uncertainty
298.2	1.3918	.00015

System: 3-methyl-1-butanol; phases: Liquid
Fixed: Pressure, kPa = 101.325
Property: Mass density, kg/m3 (Liquid); method: Vibrating tube method
Temperature, K	Mass density, kg/m3	uncertainty
298.2	808.94	.06

System: 3-methyl-1-butanol; phases: Liquid
Fixed: Pressure, kPa = 101.325
Property: Refractive index (Na D-line) (Liquid); method: Standard Abbe refractometry
Temperature, K	Refractive index (Na D-line)	uncertainty
298.2	1.4061	.00015

System: 1-hexanol; phases: Liquid
Fixed: Pressure, kPa = 101.325
Property: Mass density, kg/m3 (Liquid); method: Vibrating tube method
Temperature, K	Mass density, kg/m3	uncertainty
298.2	815.88	.06

System: 1-hexanol; phases: Liquid
Fixed: Pressure, kPa = 101.325
Property: Refractive index (Na D-line) (Liquid); method: Standard Abbe refractometry
Temperature, K	Refractive index (Na D-line)	uncertainty
298.2	1.4161	.00015

System: 1-butanol + 3-methyl-1-butanol; phases: Gas, Liquid
Fixed: Temperature, K = 343.2
Property: Vapor or sublimation pressure, kPa (Gas); method: Closed cell (Static) method
Mole fraction of 1-butanol	Vapor or sublimation pressure, kPa	uncertainty
.0502	7.8	
.1007	8.2	
.1507	8.5	
.2006	8.9	
.2497	9.2	
.2995	9.5	
.3497	9.8	
.4028	10.1	
.4509	10.4	
.5004	10.7	
.5511	10.9	
.6001	11.2	
.65	11.5	
.6998	11.8	
.7497	12.1	
.8002	12.4	
.8499	12.7	
.9003	13	
.9499	13.2	

System: 1-butanol + 3-methyl-1-butanol; phases: Gas, Liquid
Fixed: Temperature, K = 343.2
Property: Mole fraction of 1-butanol (Gas); method: Chromatography
Mole fraction of 1-butanol	Mole fraction of 1-butanol	uncertainty
.0502	.0973	
.1007	.1852	
.1507	.2573	
.2006	.3203	
.2497	.3829	
.2995	.4409	
.3497	.5007	
.4028	.5526	
.4509	.5951	
.5004	.6375	
.5511	.6795	
.6001	.7246	
.65	.7676	
.6998	.8042	
.7497	.8385	
.8002	.8722	
.8499	.9101	
.9003	.9394	
.9499	.9706	

System: 1-butanol + 3-methyl-1-butanol; phases: Liquid
Fixed: Temperature, K = 298.2
Fixed: Pressure, kPa = 101
Property: Mass density, kg/m3 (Liquid); method: Vibrating tube method
Mole fraction of 1-butanol	Mass density, kg/m3	uncertainty
.0498	808.87	
.0999	808.78	
.1999	808.58	
.3	808.35	
.4	808.09	
.4999	807.81	
.6016	807.5	
.7015	807.16	
.7999	806.8	
.9007	806.41	
.9506	806.21	

System: 1-butanol + 3-methyl-1-butanol; phases: Liquid
Fixed: Temperature, K = 298.2
Fixed: Pressure, kPa = 101
Property: Excess molar volume, m3/mol (Liquid); method: Calculated with densities of this investigation
Mole fraction of 1-butanol	Excess molar volume, m3/mol	uncertainty
.0498	-.0000000072	
.0999	-.0000000128	
.1999	-.0000000201	
.3	-.0000000245	
.4	-.0000000266	
.4999	-.0000000269	
.6016	-.000000025	
.7015	-.000000021	
.7999	-.0000000146	
.9007	-.0000000075	
.9506	-.0000000039	

System: 1-butanol + 3-methyl-1-butanol; phases: Liquid
Fixed: Temperature, K = 298.2
Fixed: Pressure, kPa = 101
Property: Refractive index (Na D-line) (Liquid); method: Standard Abbe refractometry
Mole fraction of 1-butanol	Refractive index (Na D-line)	uncertainty
.0498	1.4056	
.0999	1.4053	
.1999	1.4045	
.3	1.4037	
.4	1.4029	
.4999	1.402	
.6016	1.4009	
.7015	1.3998	
.7999	1.3988	
.9007	1.3981	
.9506	1.3978	

System: 1-butanol + 1-hexanol; phases: Gas, Liquid
Fixed: Temperature, K = 343.2
Property: Vapor or sublimation pressure, kPa (Gas); method: Closed cell (Static) method
Mole fraction of 1-butanol	Vapor or sublimation pressure, kPa	uncertainty
.0495	3	
.1	3.3	
.1503	3.8	
.1995	4.2	
.2526	4.8	
.2998	5.3	
.3474	5.9	
.3987	6.5	
.448	7	
.4998	7.7	
.5497	8.3	
.6008	8.9	
.65	9.6	
.7007	10.1	
.7515	10.8	
.8002	11.4	
.8498	12	
.8994	12.5	
.9459	13	

System: 1-butanol + 1-hexanol; phases: Gas, Liquid
Fixed: Temperature, K = 343.2
Property: Mole fraction of 1-butanol (Gas); method: Chromatography
Mole fraction of 1-butanol	Mole fraction of 1-butanol	uncertainty
.0495	.1614	
.1	.2848	
.1503	.4161	
.1995	.5143	
.2526	.6047	
.2998	.6699	
.3474	.7279	
.3987	.7774	
.448	.8112	
.4998	.8508	
.5497	.8736	
.6008	.8969	
.65	.9193	
.7007	.9348	
.7515	.9508	
.8002	.9627	
.8498	.9732	
.8994	.9821	
.9459	.9916	

System: 1-butanol + 1-hexanol; phases: Liquid
Fixed: Temperature, K = 298.2
Fixed: Pressure, kPa = 101
Property: Mass density, kg/m3 (Liquid); method: Vibrating tube method
Mole fraction of 1-butanol	Mass density, kg/m3	uncertainty
.0543	815.53	
.099	815.22	
.2042	814.42	
.2993	813.64	
.4052	812.7	
.4994	811.8	
.5938	810.85	
.7005	809.72	
.8004	808.58	
.9003	807.35	
.9499	806.7	

System: 1-butanol + 1-hexanol; phases: Liquid
Fixed: Temperature, K = 298.2
Fixed: Pressure, kPa = 101
Property: Excess molar volume, m3/mol (Liquid); method: Calculated with densities of this investigation
Mole fraction of 1-butanol	Excess molar volume, m3/mol	uncertainty
.0543	-.0000000062	
.099	-.0000000104	
.2042	-.0000000147	
.2993	-.0000000154	
.4052	-.0000000141	
.4994	-.000000012	
.5938	-.0000000102	
.7005	-.0000000091	
.8004	-.0000000079	
.9003	-.0000000061	
.9499	-.0000000032	

System: 1-butanol + 1-hexanol; phases: Liquid
Fixed: Temperature, K = 298.2
Fixed: Pressure, kPa = 101
Property: Refractive index (Na D-line) (Liquid); method: Standard Abbe refractometry
Mole fraction of 1-butanol	Refractive index (Na D-line)	uncertainty
.0543	1.4148	
.099	1.4142	
.2042	1.4126	
.2993	1.4111	
.4052	1.4094	
.4994	1.4078	
.5938	1.406	
.7005	1.4038	
.8004	1.4017	
.9003	1.3997	
.9499	1.3985	

System: 3-methyl-1-butanol + butyl acetate; phases: Gas, Liquid
Fixed: Temperature, K = 343.2
Property: Vapor or sublimation pressure, kPa (Gas); method: Closed cell (Static) method
Mole fraction of butyl acetate	Vapor or sublimation pressure, kPa	uncertainty
.032	8	
.0496	8.3	
.0996	9	
.1502	9.8	
.2004	10.3	
.2506	10.9	
.3001	11.4	
.3517	11.8	
.4011	12.4	
.4513	12.8	
.5009	13.1	
.5499	13.4	
.6001	13.7	
.6495	14	
.6996	14.2	
.7493	14.4	
.7928	14.5	
.8509	14.6	
.8996	14.6	
.9522	14.6	

System: 3-methyl-1-butanol + butyl acetate; phases: Gas, Liquid
Fixed: Temperature, K = 343.2
Property: Mole fraction of butyl acetate (Gas); method: Chromatography
Mole fraction of butyl acetate	Mole fraction of butyl acetate	uncertainty
.032	.0987	
.0496	.1528	
.0996	.2495	
.1502	.3421	
.2004	.4013	
.2506	.4648	
.3001	.5167	
.3517	.5623	
.4011	.6086	
.4513	.646	
.5009	.6758	
.5499	.7042	
.6001	.7386	
.6495	.7663	
.6996	.7841	
.7493	.8141	
.7928	.8387	
.8509	.8613	
.8996	.8976	
.9522	.9397	

System: 3-methyl-1-butanol + butyl acetate; phases: Liquid
Fixed: Temperature, K = 298.2
Fixed: Pressure, kPa = 101
Property: Mass density, kg/m3 (Liquid); method: Vibrating tube method
Mole fraction of butyl acetate	Mass density, kg/m3	uncertainty
.0497	812.53	
.104	816.52	
.1998	823.52	
.2999	830.68	
.3999	837.66	
.5001	844.46	
.6006	851.08	
.7	857.56	
.8003	863.93	
.9005	870.23	
.9466	873.08	

System: 3-methyl-1-butanol + butyl acetate; phases: Liquid
Fixed: Temperature, K = 298.2
Fixed: Pressure, kPa = 101
Property: Excess molar volume, m3/mol (Liquid); method: Calculated with densities of this investigation
Mole fraction of butyl acetate	Excess molar volume, m3/mol	uncertainty
.0497	.0000000646	
.104	.0000001066	
.1998	.0000001566	
.2999	.0000001886	
.3999	.0000002042	
.5001	.0000002085	
.6006	.0000002024	
.7	.0000001719	
.8003	.0000001301	
.9005	.0000000647	
.9466	.0000000303	

System: 3-methyl-1-butanol + butyl acetate; phases: Liquid
Fixed: Temperature, K = 298.2
Fixed: Pressure, kPa = 101
Property: Refractive index (Na D-line) (Liquid); method: Standard Abbe refractometry
Mole fraction of butyl acetate	Refractive index (Na D-line)	uncertainty
.0497	1.4049	
.104	1.4039	
.1998	1.4021	
.2999	1.4005	
.3999	1.399	
.5001	1.3976	
.6006	1.3962	
.7	1.395	
.8003	1.3939	
.9005	1.3928	
.9466	1.3923	

System: 1-hexanol + butyl acetate; phases: Gas, Liquid
Fixed: Temperature, K = 343.2
Property: Vapor or sublimation pressure, kPa (Gas); method: Closed cell (Static) method
Mole fraction of butyl acetate	Vapor or sublimation pressure, kPa	uncertainty
.0302	3.4	
.0502	4.2	
.0994	5.5	
.1507	6.8	
.1998	7.8	
.2495	8.8	
.3003	9.8	
.3459	10.5	
.3995	11.3	
.4499	11.8	
.4996	12.6	
.5501	13.1	
.5996	13.7	
.6501	14.2	
.6997	14.6	
.7489	14.8	
.8002	15.1	
.8499	15.2	
.8983	15.2	
.949	15.1	
.9793	15.1	

System: 1-hexanol + butyl acetate; phases: Gas, Liquid
Fixed: Temperature, K = 343.2
Property: Mole fraction of butyl acetate (Gas); method: Chromatography
Mole fraction of butyl acetate	Mole fraction of butyl acetate	uncertainty
.0302	.2634	
.0502	.4154	
.0994	.5758	
.1507	.6701	
.1998	.7283	
.2495	.772	
.3003	.8038	
.3459	.8285	
.3995	.8479	
.4499	.8584	
.4996	.8776	
.5501	.8903	
.5996	.8986	
.6501	.9116	
.6997	.9226	
.7489	.9242	
.8002	.9285	
.8499	.9408	
.8983	.9385	
.949	.9422	
.9793	.9409	

System: 1-hexanol + butyl acetate; phases: Liquid
Fixed: Temperature, K = 298.2
Fixed: Pressure, kPa = 101
Property: Mass density, kg/m3 (Liquid); method: Vibrating tube method
Mole fraction of butyl acetate	Mass density, kg/m3	uncertainty
.0503	818.79	
.1001	821.75	
.2012	827.7	
.3007	833.61	
.4001	839.54	
.4999	845.54	
.6004	851.63	
.6991	857.64	
.8003	863.85	
.8953	869.76	
.9452	872.86	

System: 1-hexanol + butyl acetate; phases: Liquid
Fixed: Temperature, K = 298.2
Fixed: Pressure, kPa = 101
Property: Excess molar volume, m3/mol (Liquid); method: Calculated with densities of this investigation
Mole fraction of butyl acetate	Excess molar volume, m3/mol	uncertainty
.0503	.0000000235	
.1001	.0000000538	
.2012	.0000001182	
.3007	.0000001603	
.4001	.0000001885	
.4999	.0000001991	
.6004	.0000001926	
.6991	.0000001702	
.8003	.0000001301	
.8953	.0000000726	
.9452	.000000038	

System: 1-hexanol + butyl acetate; phases: Liquid
Fixed: Temperature, K = 298.2
Fixed: Pressure, kPa = 101
Property: Refractive index (Na D-line) (Liquid); method: Standard Abbe refractometry
Mole fraction of butyl acetate	Refractive index (Na D-line)	uncertainty
.0503	1.4144	
.1001	1.4131	
.2012	1.4104	
.3007	1.4078	
.4001	1.4053	
.4999	1.4029	
.6004	1.4005	
.6991	1.3982	
.8003	1.396	
.8953	1.3939	
.9452	1.3929	

System: 1-hexanol + 3-methyl-1-butanol; phases: Gas, Liquid
Fixed: Temperature, K = 343.2
Property: Vapor or sublimation pressure, kPa (Gas); method: Closed cell (Static) method
Mole fraction of 3-methyl-1-butanol	Vapor or sublimation pressure, kPa	uncertainty
.0476	3.2	
.0798	3.6	
.1041	3.9	
.1499	4.5	
.1996	5	
.2495	5.5	
.3007	6	
.3503	6.4	
.4009	6.7	
.4592	7.1	
.4997	7.4	
.5526	7.6	
.6008	7.8	
.6494	8	
.6947	8.1	
.7489	8.2	
.7967	8.3	
.8543	8.3	
.8991	8.3	
.9502	8.2	
.9804	8	

System: 1-hexanol + 3-methyl-1-butanol; phases: Gas, Liquid
Fixed: Temperature, K = 343.2
Property: Mole fraction of 3-methyl-1-butanol (Gas); method: Chromatography
Mole fraction of 3-methyl-1-butanol	Mole fraction of 3-methyl-1-butanol	uncertainty
.0476	.2079	
.0798	.3378	
.1041	.425	
.1499	.5229	
.1996	.5957	
.2495	.6457	
.3007	.6835	
.3503	.7227	
.4009	.7514	
.4592	.786	
.4997	.8017	
.5526	.8172	
.6008	.8249	
.6494	.8396	
.6947	.8476	
.7489	.8544	
.7967	.8575	
.8543	.8595	
.8991	.8656	
.9502	.88	
.9804	.9036	

System: 1-hexanol + 3-methyl-1-butanol; phases: Liquid
Fixed: Temperature, K = 298.2
Fixed: Pressure, kPa = 101
Property: Mass density, kg/m3 (Liquid); method: Vibrating tube method
Mole fraction of 3-methyl-1-butanol	Mass density, kg/m3	uncertainty
.0496	815.43	
.0997	815.12	
.2005	814.49	
.3003	813.86	
.3986	813.22	
.4998	812.55	
.6001	811.87	
.7002	811.17	
.8	810.46	
.8998	809.73	
.9504	809.35	

System: 1-hexanol + 3-methyl-1-butanol; phases: Liquid
Fixed: Temperature, K = 298.2
Fixed: Pressure, kPa = 101
Property: Excess molar volume, m3/mol (Liquid); method: Calculated with densities of this investigation
Mole fraction of 3-methyl-1-butanol	Excess molar volume, m3/mol	uncertainty
.0496	.0000000013	
.0997	.0000000029	
.2005	.0000000045	
.3003	.0000000055	
.3986	.0000000055	
.4998	.0000000053	
.6001	.0000000049	
.7002	.0000000044	
.8	.0000000037	
.8998	.0000000026	
.9504	.0000000016	

System: 1-hexanol + 3-methyl-1-butanol; phases: Liquid
Fixed: Temperature, K = 298.2
Fixed: Pressure, kPa = 101
Property: Refractive index (Na D-line) (Liquid); method: Standard Abbe refractometry
Mole fraction of 3-methyl-1-butanol	Refractive index (Na D-line)	uncertainty
.0496	1.4154	
.0997	1.4149	
.2005	1.414	
.3003	1.4131	
.3986	1.4121	
.4998	1.4111	
.6001	1.4101	
.7002	1.4091	
.8	1.4081	
.8998	1.4069	
.9504	1.4064	
