Measured thermophysical data. Excess molar enthalpies of diethyl malonate+ (1-butanol, 2-methyl-1-propanol, 1-pentanol, n-heptane, and ethyl acetate) at T= (288.2, 298.2, 313.2, 328.2, 338.2,  and 348.2 K) and p = 101.3 kPa
Source: Fluid Phase Equilib., 2010, 10.1016/j.fluid.2009.11.030
Compound 1: diethyl 1,3-propanedioate, C7H12O4, purity 99.9%
Compound 2: 1-butanol, C4H10O, purity 99.8%
Compound 3: 2-methyl-1-propanol, C4H10O, purity 99.5%
Compound 4: 1-pentanol, C5H12O, purity 99.5%
Compound 5: heptane, C7H16, purity 99%
Compound 6: ethyl ethanoate, C4H8O2, purity 99.5%

System: diethyl 1,3-propanedioate; phases: Liquid
Fixed: Pressure, kPa = 101.325
Property: Mass density, kg/m3 (Liquid); method: Vibrating tube method
Temperature, K	Mass density, kg/m3	uncertainty
288.15	1060.326	.005
298.15	1049.603	.005
313.15	1033.498	.005
328.15	1017.336	.005
338.15	1006.505	.005
348.15	995.631	.005

System: 1-butanol; phases: Liquid
Fixed: Pressure, kPa = 101.325
Property: Mass density, kg/m3 (Liquid); method: Vibrating tube method
Temperature, K	Mass density, kg/m3	uncertainty
288.15	813.604	.005
298.15	805.984	.005
313.15	794.34	.005
328.15	782.323	.005
338.15	774.032	.005
348.15	765.48	.005

System: 2-methyl-1-propanol; phases: Liquid
Fixed: Pressure, kPa = 101.325
Property: Mass density, kg/m3 (Liquid); method: Vibrating tube method
Temperature, K	Mass density, kg/m3	uncertainty
288.15	806.121	.005
298.15	798.409	.005
313.15	786.515	.005
328.15	774.113	.005
338.15	765.452	.005
348.15	756.435	.005

System: 1-pentanol; phases: Liquid
Fixed: Pressure, kPa = 101.325
Property: Mass density, kg/m3 (Liquid); method: Vibrating tube method
Temperature, K	Mass density, kg/m3	uncertainty
288.15	819.154	.005
298.15	811.8	.005
313.15	800.574	.005
328.15	789.007	.005
338.15	781.05	.005
348.15	772.873	.005

System: heptane; phases: Liquid
Fixed: Pressure, kPa = 101.325
Property: Mass density, kg/m3 (Liquid); method: Vibrating tube method
Temperature, K	Mass density, kg/m3	uncertainty
288.15	688.254	.005
298.15	679.787	.005
313.15	666.893	.005
328.15	653.72	.005
338.15	644.767	.005
348.15	635.631	.005

System: ethyl ethanoate; phases: Liquid
Fixed: Pressure, kPa = 101.325
Property: Mass density, kg/m3 (Liquid); method: Vibrating tube method
Temperature, K	Mass density, kg/m3	uncertainty
288.15	906.547	.005
298.15	894.381	.005
313.15	875.812	.005
328.15	856.813	.005
338.15	843.858	.005
348.15	830.622	.005

System: 1-butanol + diethyl 1,3-propanedioate; phases: Liquid
Fixed: Pressure, kPa = 101.3
Property: Excess molar enthalpy (molar enthalpy of mixing), kJ/mol (Liquid); method: Isothermal microcalorimeter
Temperature, K	Mole fraction of diethyl 1,3-propanedioate	Excess molar enthalpy (molar enthalpy of mixing), kJ/mol	uncertainty
288.15	.0498	.515	.0005
288.15	.1085	1.001	.0005
288.15	.1482	1.246	.0005
288.15	.1991	1.514	.0005
288.15	.2499	1.715	.0005
288.15	.3003	1.881	.0005
288.15	.3501	1.989	.0005
288.15	.3988	2.078	.0005
288.15	.4501	2.132	.0005
288.15	.5	2.148	.0005
288.15	.548	2.134	.0005
288.15	.5984	2.094	.0005
288.15	.6512	1.984	.0005
288.15	.6965	1.882	.0005
288.15	.749	1.689	.0005
288.15	.7985	1.471	.0005
288.15	.8502	1.178	.0005
288.15	.8981	.851	.0005
288.15	.948	.458	.0005
298.15	.0498	.556	.0005
298.15	.1085	1.062	.0005
298.15	.1482	1.324	.0005
298.15	.1991	1.614	.0005
298.15	.2499	1.834	.0005
298.15	.3003	2.02	.0005
298.15	.3501	2.166	.0005
298.15	.3988	2.25	.0005
298.15	.4501	2.304	.0005
298.15	.5	2.325	.0005
298.15	.548	2.306	.0005
298.15	.5984	2.233	.0005
298.15	.6512	2.128	.0005
298.15	.6965	1.993	.0005
298.15	.749	1.784	.0005
298.15	.7985	1.541	.0005
298.15	.8502	1.234	.0005
298.15	.8981	.892	.0005
298.15	.948	.477	.0005
313.15	.0498	.61	.0005
313.15	.1085	1.191	.0005
313.15	.1482	1.481	.0005
313.15	.1991	1.828	.0005
313.15	.2499	2.07	.0005
313.15	.3003	2.276	.0005
313.15	.3501	2.422	.0005
313.15	.3988	2.513	.0005
313.15	.4501	2.564	.0005
313.15	.5	2.554	.0005
313.15	.548	2.522	.0005
313.15	.5984	2.435	.0005
313.15	.6512	2.299	.0005
313.15	.6965	2.134	.0005
313.15	.749	1.924	.0005
313.15	.7985	1.63	.0005
313.15	.8502	1.301	.0005
313.15	.8981	.944	.0005
313.15	.948	.516	.0005
328.15	.0498	.642	.0005
328.15	.1482	1.538	.0005
328.15	.1991	1.936	.0005
328.15	.2499	2.196	.0005
328.15	.3003	2.41	.0005
328.15	.3501	2.564	.0005
328.15	.3988	2.642	.0005
328.15	.4501	2.688	.0005
328.15	.5	2.684	.0005
328.15	.548	2.645	.0005
328.15	.5984	2.53	.0005
328.15	.6512	2.387	.0005
328.15	.6965	2.199	.0005
328.15	.749	1.936	.0005
328.15	.7985	1.661	.0005
328.15	.8502	1.3	.0005
328.15	.8981	.902	.0005
328.15	.948	.466	.0005
338.15	.0498	.651	.0005
338.15	.1085	1.288	.0005
338.15	.1482	1.612	.0005
338.15	.1991	1.975	.0005
338.15	.2499	2.23	.0005
338.15	.3003	2.456	.0005
338.15	.3501	2.602	.0005
338.15	.3988	2.69	.0005
338.15	.4501	2.736	.0005
338.15	.5	2.725	.0005
338.15	.548	2.669	.0005
338.15	.5984	2.561	.0005
338.15	.6512	2.406	.0005
338.15	.6965	2.223	.0005
338.15	.749	1.935	.0005
338.15	.7985	1.658	.0005
338.15	.8502	1.323	.0005
338.15	.8981	.97	.0005
338.15	.948	.533	.0005
348.15	.0498	.634	.0005
348.15	.1085	1.289	.0005
348.15	.1482	1.655	.0005
348.15	.1991	1.976	.0005
348.15	.2499	2.267	.0005
348.15	.3003	2.461	.0005
348.15	.3501	2.616	.0005
348.15	.3988	2.712	.0005
348.15	.4501	2.724	.0005
348.15	.5	2.714	.0005
348.15	.548	2.645	.0005
348.15	.5984	2.56	.0005
348.15	.6512	2.382	.0005
348.15	.6965	2.192	.0005
348.15	.749	1.912	.0005
348.15	.7985	1.641	.0005
348.15	.8502	1.281	.0005
348.15	.8981	.938	.0005
348.15	.948	.511	.0005

System: 2-methyl-1-propanol + diethyl 1,3-propanedioate; phases: Liquid
Fixed: Pressure, kPa = 101.3
Property: Excess molar enthalpy (molar enthalpy of mixing), kJ/mol (Liquid); method: Isothermal microcalorimeter
Temperature, K	Mole fraction of diethyl 1,3-propanedioate	Excess molar enthalpy (molar enthalpy of mixing), kJ/mol	uncertainty
288.15	.0502	.611	.0005
288.15	.0983	1.054	.0005
288.15	.1494	1.397	.0005
288.15	.2006	1.681	.0005
288.15	.2484	1.89	.0005
288.15	.2989	2.06	.0005
288.15	.3486	2.183	.0005
288.15	.3972	2.265	.0005
288.15	.4484	2.314	.0005
288.15	.4981	2.342	.0005
288.15	.5504	2.316	.0005
288.15	.6006	2.23	.0005
288.15	.6485	2.135	.0005
288.15	.6985	1.992	.0005
288.15	.7508	1.767	.0005
288.15	.8	1.531	.0005
288.15	.8514	1.233	.0005
288.15	.899	.837	.0005
288.15	.9485	.481	.0005
298.15	.0502	.611	.0005
298.15	.0983	1.108	.0005
298.15	.1494	1.499	.0005
298.15	.2006	1.773	.0005
298.15	.2484	2.053	.0005
298.15	.2989	2.247	.0005
298.15	.3486	2.358	.0005
298.15	.3972	2.463	.0005
298.15	.4484	2.504	.0005
298.15	.4981	2.542	.0005
298.15	.5504	2.49	.0005
298.15	.6006	2.401	.0005
298.15	.6485	2.29	.0005
298.15	.6985	2.104	.0005
298.15	.7508	1.907	.0005
298.15	.8	1.634	.0005
298.15	.8514	1.298	.0005
298.15	.899	.912	.0005
298.15	.9485	.466	.0005
313.15	.0502	.69	.0005
313.15	.0983	1.224	.0005
313.15	.1494	1.657	.0005
313.15	.2006	2.002	.0005
313.15	.2484	2.271	.0005
313.15	.2989	2.46	.0005
313.15	.3486	2.605	.0005
313.15	.3972	2.709	.0005
313.15	.4484	2.737	.0005
313.15	.4981	2.725	.0005
313.15	.5504	2.664	.0005
313.15	.6006	2.57	.0005
313.15	.6485	2.427	.0005
313.15	.6985	2.251	.0005
313.15	.7508	1.998	.0005
313.15	.8	1.701	.0005
313.15	.8514	1.358	.0005
313.15	.899	.987	.0005
313.15	.9485	.555	.0005
328.15	.0502	.704	.0005
328.15	.0983	1.256	.0005
328.15	.1494	1.674	.0005
328.15	.2006	2.086	.0005
328.15	.2484	2.314	.0005
328.15	.2989	2.565	.0005
328.15	.3486	2.723	.0005
328.15	.3972	2.77	.0005
328.15	.4484	2.825	.0005
328.15	.4981	2.811	.0005
328.15	.5504	2.739	.0005
328.15	.6006	2.604	.0005
328.15	.6485	2.453	.0005
328.15	.6985	2.24	.0005
328.15	.7508	1.971	.0005
328.15	.8	1.662	.0005
328.15	.8514	1.31	.0005
328.15	.899	.903	.0005
328.15	.9485	.496	.0005
338.15	.0502	.694	.0005
338.15	.0983	1.245	.0005
338.15	.1494	1.701	.0005
338.15	.2006	2.089	.0005
338.15	.2484	2.338	.0005
338.15	.2989	2.55	.0005
338.15	.3486	2.71	.0005
338.15	.3972	2.798	.0005
338.15	.4484	2.82	.0005
338.15	.4981	2.803	.0005
338.15	.5504	2.735	.0005
338.15	.6006	2.585	.0005
338.15	.6485	2.439	.0005
338.15	.6985	2.201	.0005
338.15	.7508	1.927	.0005
338.15	.8	1.624	.0005
338.15	.8514	1.274	.0005
338.15	.899	.938	.0005
338.15	.9485	.519	.0005
348.15	.0502	.666	.0005
348.15	.0983	1.239	.0005
348.15	.1494	1.696	.0005
348.15	.2006	2.07	.0005
348.15	.2484	2.334	.0005
348.15	.2989	2.561	.0005
348.15	.3486	2.701	.0005
348.15	.3972	2.782	.0005
348.15	.4484	2.812	.0005
348.15	.4981	2.784	.0005
348.15	.5504	2.699	.0005
348.15	.6006	2.582	.0005
348.15	.6485	2.415	.0005
348.15	.6985	2.206	.0005
348.15	.7508	1.934	.0005
348.15	.8	1.609	.0005
348.15	.8514	1.241	.0005
348.15	.899	.882	.0005
348.15	.9485	.485	.0005

System: 1-pentanol + diethyl 1,3-propanedioate; phases: Liquid
Fixed: Pressure, kPa = 101.3
Property: Excess molar enthalpy (molar enthalpy of mixing), kJ/mol (Liquid); method: Isothermal microcalorimeter
Temperature, K	Mole fraction of diethyl 1,3-propanedioate	Excess molar enthalpy (molar enthalpy of mixing), kJ/mol	uncertainty
288.15	.0583	.642	.0005
288.15	.1007	.985	.0005
288.15	.1478	1.299	.0005
288.15	.2	1.561	.0005
288.15	.2474	1.759	.0005
288.15	.3001	1.934	.0005
288.15	.3474	2.044	.0005
288.15	.4003	2.142	.0005
288.15	.4472	2.177	.0005
288.15	.4997	2.211	.0005
288.15	.55	2.209	.0005
288.15	.5975	2.159	.0005
288.15	.6466	2.069	.0005
288.15	.6973	1.947	.0005
288.15	.7497	1.757	.0005
288.15	.7988	1.552	.0005
288.15	.8494	1.257	.0005
288.15	.9017	.889	.0005
288.15	.9501	.46	.0005
298.15	.0494	.609	.0005
298.15	.1007	1.079	.0005
298.15	.1478	1.414	.0005
298.15	.2	1.729	.0005
298.15	.2474	1.944	.0005
298.15	.3001	2.156	.0005
298.15	.3474	2.271	.0005
298.15	.4003	2.39	.0005
298.15	.4472	2.445	.0005
298.15	.4997	2.467	.0005
298.15	.55	2.433	.0005
298.15	.5975	2.374	.0005
298.15	.6466	2.272	.0005
298.15	.6973	2.12	.0005
298.15	.7497	1.913	.0005
298.15	.7988	1.666	.0005
298.15	.8494	1.338	.0005
298.15	.9017	.932	.0005
298.15	.9501	.503	.0005
313.15	.0583	.749	.0005
313.15	.1007	1.181	.0005
313.15	.1478	1.619	.0005
313.15	.2	1.918	.0005
313.15	.2474	2.174	.0005
313.15	.3001	2.424	.0005
313.15	.3474	2.57	.0005
313.15	.4003	2.673	.0005
313.15	.4472	2.705	.0005
313.15	.4997	2.706	.0005
313.15	.55	2.68	.0005
313.15	.5975	2.598	.0005
313.15	.6466	2.471	.0005
313.15	.6973	2.279	.0005
313.15	.7497	2.032	.0005
313.15	.7988	1.751	.0005
313.15	.8494	1.39	.0005
313.15	.9017	.945	.0005
313.15	.9501	.508	.0005
328.15	.0583	.716	.0005
328.15	.1007	1.221	.0005
328.15	.1478	1.636	.0005
328.15	.2	2.033	.0005
328.15	.2474	2.289	.0005
328.15	.3001	2.53	.0005
328.15	.3474	2.688	.0005
328.15	.4003	2.789	.0005
328.15	.4472	2.842	.0005
328.15	.4997	2.853	.0005
328.15	.55	2.799	.0005
328.15	.5975	2.701	.0005
328.15	.6466	2.561	.0005
328.15	.6973	2.347	.0005
328.15	.7497	2.081	.0005
328.15	.7988	1.772	.0005
328.15	.8494	1.398	.0005
328.15	.9017	.97	.0005
328.15	.9501	.507	.0005
338.15	.0583	.776	.0005
338.15	.1007	1.229	.0005
338.15	.1478	1.646	.0005
338.15	.2	2.049	.0005
338.15	.2474	2.303	.0005
338.15	.3001	2.575	.0005
338.15	.3474	2.712	.0005
338.15	.4003	2.806	.0005
338.15	.4472	2.845	.0005
338.15	.4997	2.856	.0005
338.15	.55	2.8	.0005
338.15	.5975	2.694	.0005
338.15	.6466	2.499	.0005
338.15	.6973	2.33	.0005
338.15	.7497	2.058	.0005
338.15	.7988	1.765	.0005
338.15	.8494	1.386	.0005
338.15	.9017	.936	.0005
338.15	.9501	.478	.0005
348.15	.0583	.814	.0005
348.15	.1007	1.259	.0005
348.15	.1478	1.668	.0005
348.15	.2	2.05	.0005
348.15	.2474	2.329	.0005
348.15	.3001	2.539	.0005
348.15	.3474	2.695	.0005
348.15	.4003	2.83	.0005
348.15	.4472	2.852	.0005
348.15	.4997	2.837	.0005
348.15	.55	2.785	.0005
348.15	.5975	2.68	.0005
348.15	.6466	2.507	.0005
348.15	.6973	2.3	.0005
348.15	.7497	2.019	.0005
348.15	.7988	1.703	.0005
348.15	.8494	1.317	.0005
348.15	.9017	.908	.0005
348.15	.9501	.458	.0005

System: diethyl 1,3-propanedioate + heptane; phases: Liquid
Fixed: Pressure, kPa = 101.3
Property: Excess molar enthalpy (molar enthalpy of mixing), kJ/mol (Liquid); method: Isothermal microcalorimeter
Temperature, K	Mole fraction of diethyl 1,3-propanedioate	Excess molar enthalpy (molar enthalpy of mixing), kJ/mol	uncertainty
288.15	.0581	.438	.0005
288.15	.1086	.75	.0005
288.15	.1476	.943	.0005
288.15	.1984	1.151	.0005
288.15	.2495	1.31	.0005
288.15	.3007	1.48	.0005
288.15	.3481	1.531	.0005
288.15	.3997	1.584	.0005
288.15	.4474	1.594	.0005
288.15	.4993	1.601	.0005
288.15	.5474	1.596	.0005
288.15	.5997	1.571	.0005
288.15	.6481	1.517	.0005
288.15	.7008	1.45	.0005
288.15	.7495	1.352	.0005
288.15	.7985	1.2	.0005
288.15	.8476	.99	.0005
288.15	.9009	.699	.0005
288.15	.9504	.371	.0005
298.15	.0581	.419	.0005
298.15	.1008	.716	.0005
298.15	.1476	.97	.0005
298.15	.1984	1.222	.0005
298.15	.2495	1.456	.0005
298.15	.3007	1.618	.0005
298.15	.3481	1.733	.0005
298.15	.3997	1.786	.0005
298.15	.4474	1.815	.0005
298.15	.4993	1.819	.0005
298.15	.5474	1.81	.0005
298.15	.5997	1.758	.0005
298.15	.6481	1.696	.0005
298.15	.7008	1.565	.0005
298.15	.7495	1.442	.0005
298.15	.7985	1.256	.0005
298.15	.8476	1.022	.0005
298.15	.9009	.697	.0005
298.15	.9504	.373	.0005
313.15	.0581	.431	.0005
313.15	.1008	.717	.0005
313.15	.1476	.997	.0005
313.15	.1984	1.28	.0005
313.15	.2495	1.514	.0005
313.15	.3007	1.728	.0005
313.15	.3481	1.856	.0005
313.15	.3997	1.934	.0005
313.15	.4474	1.962	.0005
313.15	.4993	1.975	.0005
313.15	.5474	1.948	.0005
313.15	.5997	1.889	.0005
313.15	.6481	1.812	.0005
313.15	.7008	1.67	.0005
313.15	.7495	1.496	.0005
313.15	.7985	1.26	.0005
313.15	.8476	1.029	.0005
313.15	.9009	.691	.0005
313.15	.9504	.371	.0005
328.15	.0503	.375	.0005
328.15	.1008	.747	.0005
328.15	.1476	1.018	.0005
328.15	.1984	1.311	.0005
328.15	.2495	1.568	.0005
328.15	.3007	1.766	.0005
328.15	.3481	1.919	.0005
328.15	.3997	2.02	.0005
328.15	.4474	2.043	.0005
328.15	.4993	2.049	.0005
328.15	.5474	2.024	.0005
328.15	.5997	1.954	.0005
328.15	.6481	1.854	.0005
328.15	.7008	1.727	.0005
328.15	.7495	1.545	.0005
328.15	.7985	1.348	.0005
328.15	.8476	1.063	.0005
328.15	.9009	.752	.0005
328.15	.9504	.434	.0005
338.15	.0503	.367	.0005
338.15	.1008	.727	.0005
338.15	.1476	1.032	.0005
338.15	.1984	1.315	.0005
338.15	.2495	1.548	.0005
338.15	.3007	1.792	.0005
338.15	.3481	1.895	.0005
338.15	.3997	2.026	.0005
338.15	.4474	2.068	.0005
338.15	.4993	2.08	.0005
338.15	.5474	2.054	.0005
338.15	.5997	2	.0005
338.15	.6481	1.884	.0005
338.15	.7008	1.736	.0005
338.15	.7495	1.539	.0005
338.15	.7985	1.331	.0005
338.15	.8476	1.074	.0005
338.15	.9009	.743	.0005
338.15	.9504	.393	.0005
348.15	.0503	.378	.0005
348.15	.1008	.726	.0005
348.15	.1476	1.014	.0005
348.15	.1984	1.286	.0005
348.15	.2495	1.526	.0005
348.15	.3007	1.726	.0005
348.15	.3481	1.89	.0005
348.15	.3997	1.984	.0005
348.15	.4474	2.04	.0005
348.15	.4993	2.055	.0005
348.15	.5474	2.013	.0005
348.15	.5997	1.934	.0005
348.15	.6481	1.84	.0005
348.15	.7008	1.673	.0005
348.15	.7495	1.51	.0005
348.15	.7985	1.299	.0005
348.15	.8476	1.03	.0005
348.15	.9009	.711	.0005
348.15	.9504	.366	.0005

System: diethyl 1,3-propanedioate + ethyl ethanoate; phases: Liquid
Fixed: Pressure, kPa = 101.3
Property: Excess molar enthalpy (molar enthalpy of mixing), kJ/mol (Liquid); method: Isothermal microcalorimeter
Temperature, K	Mole fraction of diethyl 1,3-propanedioate	Excess molar enthalpy (molar enthalpy of mixing), kJ/mol	uncertainty
288.19	.0504	-.001	.0005
288.19	.1008	-.001	.0005
288.19	.148	-.002	.0005
288.19	.2007	-.002	.0005
288.19	.2496	-.002	.0005
288.19	.2974	-.002	.0005
288.19	.3475	-.002	.0005
288.19	.4	-.002	.0005
288.19	.447	-.002	.0005
288.19	.5003	-.002	.0005
288.19	.5474	-.002	.0005
288.19	.601	-.001	.0005
288.19	.6476	-.001	.0005
288.19	.7009	-.001	.0005
288.19	.7514	0	.0005
288.19	.7986	0	.0005
288.19	.8476	0	.0005
288.19	.8985	0	.0005
288.19	.9513	.001	.0005
298.15	.0504	-.002	.0005
298.15	.1008	-.003	.0005
298.15	.148	-.004	.0005
298.15	.2007	-.005	.0005
298.15	.2496	-.006	.0005
298.15	.2974	-.006	.0005
298.15	.3475	-.006	.0005
298.15	.4	-.006	.0005
298.15	.447	-.006	.0005
298.15	.5003	-.005	.0005
298.15	.5474	-.005	.0005
298.15	.601	-.004	.0005
298.15	.6476	-.004	.0005
298.15	.7009	-.003	.0005
298.15	.7514	-.003	.0005
298.15	.7986	-.002	.0005
298.15	.8476	-.001	.0005
298.15	.8985	0	.0005
298.15	.9513	.001	.0005
313.15	.0504	-.004	.0005
313.15	.1008	-.006	.0005
313.15	.148	-.008	.0005
313.15	.2007	-.01	.0005
313.15	.2496	-.011	.0005
313.15	.2974	-.012	.0005
313.15	.3475	-.012	.0005
313.15	.4	-.012	.0005
313.15	.447	-.012	.0005
313.15	.5003	-.012	.0005
313.15	.5474	-.011	.0005
313.15	.601	-.01	.0005
313.15	.6476	-.009	.0005
313.15	.7009	-.008	.0005
313.15	.7514	-.007	.0005
313.15	.7986	-.006	.0005
313.15	.8476	-.004	.0005
313.15	.8985	-.003	.0005
313.15	.9513	-.001	.0005
328.15	.0504	-.006	.0005
328.15	.1008	-.01	.0005
328.15	.148	-.014	.0005
328.15	.2007	-.017	.0005
328.15	.2496	-.019	.0005
328.15	.2974	-.02	.0005
328.15	.3475	-.021	.0005
328.15	.4	-.021	.0005
328.15	.447	-.021	.0005
328.15	.5003	-.02	.0005
328.15	.5474	-.019	.0005
328.15	.601	-.018	.0005
328.15	.6476	-.017	.0005
328.15	.7009	-.015	.0005
328.15	.7514	-.013	.0005
328.15	.7986	-.01	.0005
328.15	.8476	-.008	.0005
328.15	.8985	-.006	.0005
328.15	.9513	-.003	.0005
338.15	.0504	-.007	.0005
338.15	.1008	-.014	.0005
338.15	.148	-.018	.0005
338.15	.2007	-.022	.0005
338.15	.2496	-.025	.0005
338.15	.2974	-.026	.0005
338.15	.3475	-.028	.0005
338.15	.4	-.028	.0005
338.15	.447	-.028	.0005
338.15	.5003	-.027	.0005
338.15	.5474	-.026	.0005
338.15	.601	-.024	.0005
338.15	.6476	-.022	.0005
338.15	.7009	-.019	.0005
338.15	.7514	-.017	.0005
338.15	.7986	-.014	.0005
338.15	.8476	-.01	.0005
338.15	.8985	-.007	.0005
338.15	.9513	-.003	.0005
348.15	.0504	-.01	.0005
348.15	.1008	-.017	.0005
348.15	.148	-.023	.0005
348.15	.2007	-.027	.0005
348.15	.2496	-.031	.0005
348.15	.2974	-.033	.0005
348.15	.3475	-.034	.0005
348.15	.4	-.035	.0005
348.15	.447	-.034	.0005
348.15	.5003	-.033	.0005
348.15	.5474	-.032	.0005
348.15	.601	-.03	.0005
348.15	.6476	-.027	.0005
348.15	.7009	-.024	.0005
348.15	.7514	-.021	.0005
348.15	.7986	-.017	.0005
348.15	.8476	-.013	.0005
348.15	.8985	-.009	.0005
348.15	.9513	-.004	.0005
