Measured thermophysical data. Experimental investigation and calculation of vapor-liquid equilibria for Cu-Pb binary alloy in vacuum distillation
Source: Fluid Phase Equilib., 2015, 10.1016/j.fluid.2015.07.043
Compound 1: copper, Cu, purity 99.99%
Compound 2: lead, Pb, purity 99.99%

System: lead + copper; phases: Liquid, Gas
Fixed: Pressure, kPa = .005
Property: Mole fraction of lead (Liquid); method: vacuum distillation
Temperature, K	Mole fraction of lead	uncertainty
1223	.005367	.000002
1273	.002886	.000002
1323	.000834	.000002
1373	.000308	.000002
1423	.000015	.000002

System: lead + copper; phases: Gas, Liquid
Fixed: Pressure, kPa = .005
Property: Mole fraction of lead (Gas); method: vacuum distillation
Temperature, K	Mole fraction of lead	uncertainty
1223	.999022	.000002
1273	.997066	.000002
1323	.9935	.000002
1373	.988018	.000002
1423	.981629	.000002
