Measured thermophysical data. Measurement and prediction of liquid-liquid equilibria in ternary systems containing water, an organic component, and cyclohexanol
Source: Fluid Phase Equilib., 2016, 10.1016/j.fluid.2016.12.001
Compound 1: water, H2O, purity 99.8%
Compound 2: heptane, C7H16, purity 99.5%
Compound 3: toluene, C7H8, purity 99.8%
Compound 4: cyclohexane, C6H12, purity 99.5%
Compound 5: cyclohexylamine, C6H13N, purity 99.5%
Compound 6: cyclohexanol, C6H12O, purity 98%

System: cyclohexanol + heptane + water; phases: Liquid mixture 1, Liquid mixture 2
Fixed: Pressure, kPa = 101
Property: Mole fraction of cyclohexanol (Liquid mixture 1); method: Titration method
Temperature, K	Mole fraction of heptane	Mole fraction of cyclohexanol	uncertainty
298.15	0	.561	
298.15	.055	.572	
298.15	.1	.568	
298.15	.168	.55	
298.15	.217	.532	
298.15	.278	.501	
298.15	.331	.476	
298.15	.54	.36	
298.15	.717	.225	
298.15	.893	.095	
323.15	0	.534	
323.15	.056	.555	
323.15	.111	.552	
323.15	.162	.536	
323.15	.232	.511	
323.15	.292	.486	
323.15	.343	.462	
323.15	.41	.431	
323.15	.673	.256	
323.15	.833	.132	

System: toluene + cyclohexanol + water; phases: Liquid mixture 1, Liquid mixture 2
Fixed: Pressure, kPa = 101
Property: Mole fraction of cyclohexanol (Liquid mixture 1); method: Titration method
Temperature, K	Mole fraction of toluene	Mole fraction of cyclohexanol	uncertainty
298.15	0	.561	
298.15	.13	.54	
298.15	.212	.512	
298.15	.271	.486	
298.15	.301	.472	
298.15	.336	.453	
298.15	.383	.428	
298.15	.487	.372	
298.15	.536	.343	
298.15	.596	.303	
298.15	.667	.255	
298.15	.752	.193	
298.15	.86	.111	
323.15	0	.534	
323.15	.095	.526	
323.15	.141	.516	
323.15	.21	.501	
323.15	.253	.479	
323.15	.285	.464	
323.15	.327	.442	
323.15	.385	.413	
323.15	.461	.37	
323.15	.589	.298	
323.15	.66	.249	
323.15	.749	.191	
323.15	.857	.112	

System: cyclohexanol + cyclohexane + water; phases: Liquid mixture 1, Liquid mixture 2
Fixed: Pressure, kPa = 101
Property: Mole fraction of cyclohexanol (Liquid mixture 1); method: Titration method
Temperature, K	Mole fraction of cyclohexane	Mole fraction of cyclohexanol	uncertainty
298.15	0	.561	
298.15	.052	.581	
298.15	.137	.568	
298.15	.237	.542	
298.15	.28	.515	
298.15	.345	.485	
298.15	.442	.43	
298.15	.574	.342	
298.15	.68	.266	
298.15	.811	.165	
323.15	0	.534	
323.15	.07	.547	
323.15	.146	.536	
323.15	.238	.499	
323.15	.346	.46	
323.15	.39	.437	
323.15	.449	.403	
323.15	.55	.345	
323.15	.614	.299	
323.15	.69	.239	
323.15	.791	.169	
323.15	.914	.074	

System: cyclohexylamine + cyclohexanol + water; phases: Liquid mixture 1, Liquid mixture 2
Fixed: Pressure, kPa = 101
Property: Mole fraction of cyclohexanol (Liquid mixture 1); method: Titration method
Temperature, K	Mole fraction of cyclohexylamine	Mole fraction of cyclohexanol	uncertainty
298.15	0	.561	
298.15	.01	.545	
298.15	.034	.506	
298.15	.043	.488	
298.15	.064	.459	
298.15	.08	.423	
298.15	.095	.388	
298.15	.107	.36	
298.15	.115	.325	
298.15	.127	.274	
298.15	.131	.253	
298.15	.134	.234	
298.15	.132	.203	
298.15	.131	.104	
298.15	.122	.079	
298.15	.11	.05	
298.15	.063	.016	
298.15	.058	.014	
298.15	0	.008	
323.15	0	.534	
323.15	.024	.496	
323.15	.071	.417	
323.15	.094	.361	
323.15	.122	.25	
323.15	.142	.182	
323.15	.15	.095	
323.15	.14	.065	
323.15	.097	.02	
323.15	.09	.017	
323.15	0	.006	

System: cyclohexylamine + cyclohexanol + water; phases: Liquid mixture 2, Liquid mixture 1
Property: Mole fraction of cyclohexylamine (Liquid mixture 2); method: Titration method
Property: Mole fraction of water (Liquid mixture 1); method: Titration method
Property: Mole fraction of cyclohexylamine (Liquid mixture 1); method: Titration method
Temperature, K	Pressure, kPa	Mole fraction of water	Mole fraction of cyclohexylamine	uncertainty	Mole fraction of water	uncertainty	Mole fraction of cyclohexylamine	uncertainty
298.15	101	.985	.009	.003	.502	.003	.068	.003
323.15	101	.983	.012	.003	.514	.003	.069	.003
323.15	101	.987	.008	.003	.491	.003	.053	.003

System: toluene + cyclohexanol; phases: Liquid
Fixed: Pressure, kPa = 101
Property: Mass density, kg/m3 (Liquid); method: Vibrating tube method
Temperature, K	Mole fraction of toluene	Mass density, kg/m3	uncertainty
298.15	0	945.41	
298.15	.0907	936.92	
298.15	.2251	924.73	
298.15	.3178	916.54	
298.15	.4335	906.49	
298.15	.5121	899.84	
298.15	.6293	890.08	
298.15	.801	876.55	
298.15	.8953	869.32	
298.15	1	862.09	
