Measured thermophysical data. Experimental study and phase equilibrium modeling of systems containing acid gas and glycol
Source: Fluid Phase Equilib., 2012, 10.1016/j.fluid.2011.12.025
Compound 1: 1,2-ethanediol, C2H6O2, purity 99%
Compound 2: 3-oxa-1,5-pentanediol, C4H10O3, purity 99%
Compound 3: 3,6-dioxa-1,8-octanediol, C6H14O4, purity 99%
Compound 4: carbonyl sulfide, COS, purity 99.5%
Compound 5: hydrogen sulfide, H2S, purity 99.5%

System: 1,2-ethanediol + carbonyl sulfide; phases: Liquid, Gas
Property: Vapor or sublimation pressure, kPa (Liquid); method: Static-synthetic method
Temperature, K	Mole fraction of carbonyl sulfide	Vapor or sublimation pressure, kPa	uncertainty
276.15	.0155	235	1
276.15	.0392	556	1
288.15	.0133	271	1
288.15	.0172	300	1
288.15	.0284	553	1
288.15	.0331	650	1
298.15	.0135	332	1
298.15	.0251	613	1
298.15	.0291	722	1
298.15	.0399	875	1
308.15	.0122	361	1
308.15	.0223	669	1
308.15	.0258	788	1
308.15	.0357	958	1
323.15	.0105	401	1
323.15	.0191	746	1
323.15	.022	880	1
323.15	.0309	1071	1
333.15	.0096	426	1
333.15	.0175	793	1
333.15	.02	936	1
333.15	.0285	1140	1

System: 3-oxa-1,5-pentanediol + carbonyl sulfide; phases: Liquid, Gas
Property: Vapor or sublimation pressure, kPa (Liquid); method: Static-synthetic method
Temperature, K	Mole fraction of carbonyl sulfide	Vapor or sublimation pressure, kPa	uncertainty
288.21	.0347	222	1
288.15	.0571	349	1
287.92	.0762	459	1
288.08	.12	671	1
287.91	.132	717	1
298.23	.0317	256	1
298.11	.052	404	1
298.11	.0696	537	1
298.08	.0749	573	1
298.24	.1085	794	1
298.16	.1196	859	1
308.17	.0292	289	1
308.09	.0474	457	1
308.15	.0635	614	1
308.81	.0675	657	1
308.17	.0981	911	1
308.17	.1087	995	1
318.08	.0433	507	1
318.09	.0619	727	1
318.15	.0889	1024	1
317.95	.099	1123	1
323.11	.0255	339	1
323.08	.0414	532	1
323.11	.0556	722	1
323.04	.0592	762	1
323.15	.0847	1078	1
323.07	.0955	1179	1
328.1	.0566	798	1
333.06	.0236	369	1
333.07	.0381	579	1
333.09	.0513	789	1
333.04	.0543	831	1
333.14	.0772	1181	1
333.12	.0863	1310	1

System: 3,6-dioxa-1,8-octanediol + carbonyl sulfide; phases: Liquid, Gas
Property: Vapor or sublimation pressure, kPa (Liquid); method: Static-synthetic method
Temperature, K	Mole fraction of carbonyl sulfide	Vapor or sublimation pressure, kPa	uncertainty
288.12	.0448	189	1
288.01	.0844	368	1
288.05	.1137	475	1
288.02	.1179	503	1
287.98	.1298	509	1
288.07	.124	512	1
288.07	.1229	512	1
288.22	.1681	683	1
288.23	.1814	733	1
298.09	.0457	234	1
298.18	.0886	453	1
298.19	.1011	528	1
298.21	.1088	558	1
298.16	.1081	584	1
298.18	.1202	619	1
298.15	.1391	711	1
298.19	.1558	794	1
298.15	.1681	854	1
308.13	.0383	240	1
308.11	.0889	561	1
308.08	.0967	641	1
308.14	.1046	665	1
308.15	.1258	795	1
308.13	.1556	973	1
323.23	.0343	275	1
323.17	.0793	649	1
323.16	.0918	714	1
323.21	.1116	928	1
323.05	.1391	1144	1
333.2	.0321	298	1
333.16	.0584	546	1
333.16	.0739	705	1
333	.1037	1010	1
333.15	.1295	1253	1

System: 1,2-ethanediol + hydrogen sulfide; phases: Liquid, Gas
Property: Vapor or sublimation pressure, kPa (Liquid); method: Static-synthetic method
Temperature, K	Mole fraction of hydrogen sulfide	Vapor or sublimation pressure, kPa	uncertainty
298.22	.044	353	1
298.16	.084	659	1
298.16	.129	971	1
298.06	.145	1077	1
307.93	.134	1265	1
322.77	.118	1549	1
332.11	.12	1734	1

System: 3-oxa-1,5-pentanediol + hydrogen sulfide; phases: Liquid, Gas
Property: Vapor or sublimation pressure, kPa (Liquid); method: Static-synthetic method
Temperature, K	Mole fraction of hydrogen sulfide	Vapor or sublimation pressure, kPa	uncertainty
298.15	.16	270	1
298.13	.272	502	1
298.15	.465	1008	1
298.13	.118	184	1
298.2	.483	1039	1
322.83	.142	421	1
323.04	.246	791	1
323.02	.432	1609	1
323.19	.102	288	1
323.28	.423	1644	1
