Measured thermophysical data. Density, viscosity, and electrical conductivity of N-methoxymethyl-N-methylpyrrolidinium bis(trifluoromethanesulfonyl)amide
Source: Fluid Phase Equilib., 2011, 10.1016/j.fluid.2010.11.001
Compound 1: 1-(methoxymethyl)-1-methylpyrrolidinium bis(trifluoromethanesulfonyl)amide, C9H16F6N2O5S2, purity 99%

System: 1-(methoxymethyl)-1-methylpyrrolidinium bis(trifluoromethanesulfonyl)amide; phases: Liquid
Fixed: Pressure, kPa = 101.325
Property: Mass density, kg/m3 (Liquid); method: Vibrating tube method
Temperature, K	Mass density, kg/m3	uncertainty
273.15	1507.34	.05
278.15	1502.32	.05
283.15	1497.33	.05
288.15	1492.37	.05
293.15	1487.45	.05
298.15	1482.54	.05
303.15	1477.66	.05
313.15	1467.96	.05
323.15	1458.35	.05
333.15	1448.81	.05
343.15	1439.34	.05
353.15	1429.94	.05
363.15	1420.6	.05

System: 1-(methoxymethyl)-1-methylpyrrolidinium bis(trifluoromethanesulfonyl)amide; phases: Liquid
Fixed: Pressure, kPa = 101.325
Property: Viscosity, Pa*s (Liquid); method: Concentric cylinders viscometry
Temperature, K	Viscosity, Pa*s	uncertainty
273.15	.12514	.0025028
278.15	.09627	.0019254
283.15	.07561	.0015122
288.15	.06051	.0012102
293.15	.04922	.0009844
298.15	.04063	.0008126
303.15	.03398	.0006796
313.15	.02461	.0004922
323.15	.01853	.0003706
333.15	.0144	.000288
343.15	.01149	.0002298
353.15	.00937	.0001874
363.15	.00778	.0001556

System: 1-(methoxymethyl)-1-methylpyrrolidinium bis(trifluoromethanesulfonyl)amide; phases: Liquid
Fixed: Pressure, kPa = 101.325
Property: Electrical conductivity, S/m (Liquid); method: Alternating current cell with electrodes
Temperature, K	Electrical conductivity, S/m	uncertainty
273.15	.195	.0039
278.15	.249	.00498
283.15	.311	.00622
288.15	.382	.00764
293.15	.461	.00922
298.15	.55	.011
303.15	.647	.01294
308.15	.755	.0151
313.15	.871	.01742
318.15	.993	.01986
323.15	1.128	.02256
328.15	1.266	.02532
333.15	1.41	.0282
338.15	1.565	.0313
348.15	1.888	.03776
353.15	2.047	.04094
