Measured thermophysical data. Phase behavior of vinyl fluoride in room-temperature ionic liquids [emim][Tf2N], [bmim][N(CN)2], [bmpy][BF4], [bmim][HFPS] and [omim][TFES]
Source: Fluid Phase Equilib., 2012, 10.1016/j.fluid.2011.11.030
Compound 1: fluoroethene, C2H3F, purity 99.9%
Compound 2: ethene, C2H4, purity 99.9%
Compound 3: 1-ethyl-3-methylimidazolium bis[(trifluoromethyl)sulfonyl]imide, C8H11F6N3O4S2, purity 99.5%
Compound 4: 1-butyl-3-methylimidazolium dicyanamide, C10H15N5, purity 97%
Compound 5: N-butyl-4-methylpyridinium tetrafluoroborate, C10H16BF4N, purity 99%
Compound 6: 1-butyl-3-methylimidazolium 1,1,2,3,3,3-hexafluoropropanesulfonate, C11H16F6N2O3S, purity 99%
Compound 7: 1-octyl-3-methylimidazolium 1,1,2,2-tetrafluoroethanesulfonate, C14H24F4N2O3S, purity 99%

System: 1-butyl-3-methylimidazolium dicyanamide; phases: Liquid
Fixed: Pressure, kPa = 101.325
Property: Mass density, kg/m3 (Liquid); method: Pycnometric method
Temperature, K	Mass density, kg/m3	uncertainty
298.15	1065	1
323.15	1050	1
348.15	1036	1
373.15	1026	1

System: 1-butyl-3-methylimidazolium dicyanamide; phases: Liquid
Fixed: Pressure, kPa = 101.325
Property: Viscosity, Pa*s (Liquid); method: Capillary tube (Ostwald; Ubbelohde) method
Temperature, K	Viscosity, Pa*s	uncertainty
298.15	.0301	.001505
323.15	.0135	.000675
348.15	.0077	.000385
373.15	.0049	.000245

System: N-butyl-4-methylpyridinium tetrafluoroborate; phases: Liquid
Fixed: Pressure, kPa = 101.325
Property: Mass density, kg/m3 (Liquid); method: Pycnometric method
Temperature, K	Mass density, kg/m3	uncertainty
298.15	1185	1
323.15	1171	1
348.15	1154	1
373.15	1144	1

System: N-butyl-4-methylpyridinium tetrafluoroborate; phases: Liquid
Fixed: Pressure, kPa = 101.325
Property: Viscosity, Pa*s (Liquid); method: Capillary tube (Ostwald; Ubbelohde) method
Temperature, K	Viscosity, Pa*s	uncertainty
298.15	.2055	.010275
323.15	.0527	.002635
348.15	.0213	.001065
373.15	.0105	.000525

System: 1-octyl-3-methylimidazolium 1,1,2,2-tetrafluoroethanesulfonate; phases: Liquid
Fixed: Pressure, kPa = 101.325
Property: Mass density, kg/m3 (Liquid); method: Pycnometric method
Temperature, K	Mass density, kg/m3	uncertainty
298.15	1233	1
323.15	1215	1
348.15	1196	1
373.15	1176	1

System: 1-octyl-3-methylimidazolium 1,1,2,2-tetrafluoroethanesulfonate; phases: Liquid
Fixed: Pressure, kPa = 101.325
Property: Viscosity, Pa*s (Liquid); method: Capillary tube (Ostwald; Ubbelohde) method
Temperature, K	Viscosity, Pa*s	uncertainty
298.15	.2794	.01397
323.15	.0798	.00399
348.15	.0325	.001625
373.15	.0153	.000765

System: fluoroethene + 1-ethyl-3-methylimidazolium bis[(trifluoromethyl)sulfonyl]imide; phases: Liquid, Gas
Property: Vapor or sublimation pressure, kPa (Liquid); method: Closed cell (Static) method
Temperature, K	Mole fraction of fluoroethene	Vapor or sublimation pressure, kPa	uncertainty
278	.102	162	8
278	.214	369.6	8
278	.317	588.8	8
278	.411	811.5	8
278	.491	1021.8	8
278	.558	1203.1	8
278	.622	1380.3	8
278	.673	1521	8
297.9	.104	261.3	8
297.9	.193	518.5	8
297.9	.296	864.6	8
297.9	.391	1232.8	8
297.9	.458	1521.7	8
297.9	.51	1760.2	8
297.9	.564	2021.5	8
297.9	.611	2254.6	8
297.9	.662	2508.3	8
372.6	.059	473	8
372.6	.113	937.7	8
372.6	.157	1359	8
372.6	.189	1694.7	8
372.6	.224	2079.5	8
372.6	.254	2435.9	8
372.6	.289	2886.8	8
372.6	.332	3484.6	8
372.6	.377	4207.2	8

System: fluoroethene + 1-ethyl-3-methylimidazolium bis[(trifluoromethyl)sulfonyl]imide; phases: Liquid, Gas
Fixed: Mole fraction of 1-ethyl-3-methylimidazolium bis[(trifluoromethyl)sulfonyl]imide = 0
Property: Henry's Law constant (mole fraction scale), kPa of 1-ethyl-3-methylimidazolium bis[(trifluoromethyl)sulfonyl]imide (Liquid); method: Derived from VLE measurements
Temperature, K	Henry's Law constant (mole fraction scale), kPa of 1-ethyl-3-methylimidazolium bis[(trifluoromethyl)sulfonyl]imide	uncertainty
298	2610	90

System: fluoroethene + 1-butyl-3-methylimidazolium dicyanamide; phases: Liquid, Gas
Property: Vapor or sublimation pressure, kPa (Liquid); method: Closed cell (Static) method
Temperature, K	Mole fraction of fluoroethene	Vapor or sublimation pressure, kPa	uncertainty
298	.026	120	8
298	.082	399.2	8
298	.133	670.2	8
298	.199	1043.2	8
298	.263	1430	8
298	.309	1731.3	8
298	.347	1987.1	8
298	.382	2233.9	8
298	.418	2486.9	8
373.2	.029	438.5	8
373.2	.058	928	8
373.2	.085	1376.2	8
373.2	.115	1923.6	8
373.2	.138	2360.1	8
373.2	.16	2811.7	8
373.2	.185	3350.8	8
373.2	.203	3798.3	8
373.2	.221	4261.6	8

System: fluoroethene + 1-butyl-3-methylimidazolium dicyanamide; phases: Liquid, Gas
Fixed: Mole fraction of 1-butyl-3-methylimidazolium dicyanamide = 0
Property: Henry's Law constant (mole fraction scale), kPa of 1-butyl-3-methylimidazolium dicyanamide (Liquid); method: Derived from VLE measurements
Temperature, K	Henry's Law constant (mole fraction scale), kPa of 1-butyl-3-methylimidazolium dicyanamide	uncertainty
298	4900	60

System: fluoroethene + N-butyl-4-methylpyridinium tetrafluoroborate; phases: Liquid, Gas
Property: Vapor or sublimation pressure, kPa (Liquid); method: Closed cell (Static) method
Temperature, K	Mole fraction of fluoroethene	Vapor or sublimation pressure, kPa	uncertainty
277.9	.063	124.8	8
277.9	.14	291	8
277.9	.202	433	8
277.9	.262	579.2	8
277.9	.329	750.8	8
277.9	.395	930.8	8
277.9	.461	1120.4	8
277.9	.522	1299	8
277.9	.57	1441.7	8
298	.047	146.2	8
298	.128	422.6	8
298	.204	709.5	8
298	.292	1074.9	8
298	.36	1385.8	8
298	.418	1673.4	8
298	.473	1958.8	8
298	.525	2242.2	8
298	.569	2483.5	8
373.2	.051	547.4	8
373.2	.091	1024.6	8
373.2	.134	1581	8
373.2	.165	2002.2	8
373.2	.195	2439.4	8
373.2	.22	2837.9	8
373.2	.248	3315.7	8
373.2	.271	3726.6	8
373.2	.297	4227.2	8

System: fluoroethene + N-butyl-4-methylpyridinium tetrafluoroborate; phases: Liquid, Gas
Fixed: Mole fraction of N-butyl-4-methylpyridinium tetrafluoroborate = 0
Property: Henry's Law constant (mole fraction scale), kPa of N-butyl-4-methylpyridinium tetrafluoroborate (Liquid); method: Derived from VLE measurements
Temperature, K	Henry's Law constant (mole fraction scale), kPa of N-butyl-4-methylpyridinium tetrafluoroborate	uncertainty
298	3300	70

System: fluoroethene + 1-butyl-3-methylimidazolium 1,1,2,3,3,3-hexafluoropropanesulfonate; phases: Liquid, Gas
Property: Vapor or sublimation pressure, kPa (Liquid); method: Closed cell (Static) method
Temperature, K	Mole fraction of fluoroethene	Vapor or sublimation pressure, kPa	uncertainty
297.9	.041	112.4	8
297.9	.148	441.3	8
297.9	.259	835	8
297.9	.349	1192.1	8
297.9	.434	1565.1	8
297.9	.513	1930.5	8
297.9	.58	2248.4	8
297.9	.63	2484.2	8
372.7	.057	501.9	8
372.7	.104	947.3	8
372.7	.148	1399.6	8
372.7	.184	1805	8
372.7	.22	2241.5	8
372.7	.251	2636.5	8
372.7	.287	3143.3	8
372.7	.326	3734.9	8

System: fluoroethene + 1-butyl-3-methylimidazolium 1,1,2,3,3,3-hexafluoropropanesulfonate; phases: Liquid, Gas
Fixed: Mole fraction of 1-butyl-3-methylimidazolium 1,1,2,3,3,3-hexafluoropropanesulfonate = 0
Property: Henry's Law constant (mole fraction scale), kPa of 1-butyl-3-methylimidazolium 1,1,2,3,3,3-hexafluoropropanesulfonate (Liquid); method: Derived from VLE measurements
Temperature, K	Henry's Law constant (mole fraction scale), kPa of 1-butyl-3-methylimidazolium 1,1,2,3,3,3-hexafluoropropanesulfonate	uncertainty
298	3040	90

System: fluoroethene + 1-octyl-3-methylimidazolium 1,1,2,2-tetrafluoroethanesulfonate; phases: Liquid, Gas
Property: Vapor or sublimation pressure, kPa (Liquid); method: Closed cell (Static) method
Temperature, K	Mole fraction of fluoroethene	Vapor or sublimation pressure, kPa	uncertainty
277.9	.083	136.5	8
277.9	.187	328.9	8
277.9	.248	453.7	8
277.9	.31	586.1	8
277.9	.383	755	8
277.9	.472	975.6	8
277.9	.546	1170	8
277.9	.6	1312.1	8
277.9	.648	1436.2	8
298	.079	197.2	8
298	.178	477.8	8
298	.281	814.3	8
298	.365	1121.8	8
298	.433	1392	8
298	.509	1722.3	8
298	.568	1991.2	8
298	.628	2272.5	8
298	.687	2541.4	8
373.2	.068	518.5	8
373.2	.124	993.5	8
373.2	.175	1473.4	8
373.2	.21	1828.5	8
373.2	.255	2324.9	8
373.2	.296	2819.3	8
373.2	.329	3258.5	8
373.2	.361	3705.2	8
373.2	.39	4158.9	8

System: fluoroethene + 1-octyl-3-methylimidazolium 1,1,2,2-tetrafluoroethanesulfonate; phases: Liquid, Gas
Fixed: Mole fraction of 1-octyl-3-methylimidazolium 1,1,2,2-tetrafluoroethanesulfonate = 0
Property: Henry's Law constant (mole fraction scale), kPa of 1-octyl-3-methylimidazolium 1,1,2,2-tetrafluoroethanesulfonate (Liquid); method: Derived from VLE measurements
Temperature, K	Henry's Law constant (mole fraction scale), kPa of 1-octyl-3-methylimidazolium 1,1,2,2-tetrafluoroethanesulfonate	uncertainty
298	2690	90

System: ethene + 1-ethyl-3-methylimidazolium bis[(trifluoromethyl)sulfonyl]imide; phases: Liquid, Gas
Property: Vapor or sublimation pressure, kPa (Liquid); method: Gravimetric method
Temperature, K	Mole fraction of ethene	Vapor or sublimation pressure, kPa	uncertainty
279	.001	26	8
279.8	.003	50.2	8
280	.005	75.2	8
280.2	.008	100.1	8
280.2	.011	125.2	8
280.1	.015	150.1	8
280.2	.028	249.9	8
280.3	.061	500.4	8
279.9	.094	750.2	8
280	.123	1000.7	8
279.9	.153	1250.6	8
279.9	.176	1500.2	8
279.9	.202	1750.8	8
279.7	.228	2000.8	8
298.1	.002	26.3	8
298.1	.004	51.1	8
298.1	.006	75.7	8
298.2	.009	101.2	8
298.1	.01	126.6	8
298.1	.013	150.1	8
298.1	.023	250	8
298.1	.047	500.9	8
298.1	.071	750.9	8
298.1	.094	1000.7	8
298.1	.117	1250.7	8
298.1	.138	1500.6	8
298.1	.158	1750.8	8
298.1	.177	2000.8	8
346.6	.001	75.3	8
346.3	.003	100.5	8
346	.005	125.6	8
346	.007	150.1	8
345.8	.014	250.1	8
283.1	.002	25.5	8
283.1	.003	50.5	8
283.1	.007	75.2	8
283.1	.009	100.2	8
283.1	.012	125.2	8
283.2	.014	150	8
283.1	.029	250.6	8
283.2	.059	500.5	8
283.1	.09	750.6	8
283.1	.119	1001	8
283.1	.146	1250.2	8
283.1	.173	1500.6	8
283.1	.197	1750.6	8
283.1	.219	2000.8	8
323.2	.001	50.1	8
323.1	.002	75.2	8
323.1	.003	100.2	8
323.2	.005	126	8
323.1	.007	150.1	8
323.1	.016	250.3	8
323.1	.033	501.1	8
323.1	.05	750.2	8
323.2	.068	1000.8	8
323.2	.083	1249.8	8
323.1	.099	1499.2	8
323.1	.114	1748.9	8
323.2	.128	1999.7	8
345.4	.027	500.5	8
345.4	.043	749	8
347.2	.053	1000.9	8
347.2	.067	1250.9	8
347.1	.079	1500.1	8
347	.094	1750.7	8
347.1	.108	2001	8
303.1	.007	101	8
303.1	.022	250.1	8
303.1	.045	500.4	8
303.1	.067	750.7	8
303.1	.088	1000.7	8
303.1	.108	1250.2	8
303.1	.129	1500.7	8
303.1	.148	1750.7	8
303.1	.166	2000.5	8
333.1	.004	102.1	8
333.1	.016	252.1	8
333.2	.03	499.9	8
333.1	.048	750.3	8
333.1	.062	1000.7	8
333.1	.079	1250.3	8
333.2	.093	1500.9	8
333.2	.109	1749.4	8
333.1	.123	2000.8	8

System: ethene + 1-ethyl-3-methylimidazolium bis[(trifluoromethyl)sulfonyl]imide; phases: Liquid, Gas
Fixed: Mole fraction of 1-ethyl-3-methylimidazolium bis[(trifluoromethyl)sulfonyl]imide = 0
Property: Henry's Law constant (mole fraction scale), kPa of 1-ethyl-3-methylimidazolium bis[(trifluoromethyl)sulfonyl]imide (Liquid); method: Derived from VLE measurements
Temperature, K	Henry's Law constant (mole fraction scale), kPa of 1-ethyl-3-methylimidazolium bis[(trifluoromethyl)sulfonyl]imide	uncertainty
298	9900	120
