Measured thermophysical data. Oxoacidity scale of molten ionic chlorides and bromides
Source: Fluid Phase Equilib., 2015, 10.1016/j.fluid.2015.05.025
Compound 1: lead monooxide, OPb, purity 99.8%
Compound 2: nickel monoxide, NiO, purity 99.5%
Compound 3: barium bromide, BaBr2, purity 99.5%
Compound 4: potassium bromide, BrK, purity 99.8%

System: lead monooxide + potassium bromide + barium bromide; phases: Liquid mixture 1, Liquid mixture 2
Fixed: Temperature, K = 973
Fixed: Pressure, kPa = 101
Property: Mole fraction of lead monooxide (Liquid mixture 1); method: potentiometry
Mole fraction of barium bromide	Mole fraction of lead monooxide	uncertainty
.505	.00199	.71

System: nickel monoxide + potassium bromide + barium bromide; phases: Liquid mixture 1, Liquid mixture 2
Fixed: Temperature, K = 973
Fixed: Pressure, kPa = 101
Property: Mole fraction of nickel monoxide (Liquid mixture 1); method: potentiometry
Mole fraction of barium bromide	Mole fraction of nickel monoxide	uncertainty
.505	.0000195	.71
