Measured thermophysical data. New device for measuring the solubility of inorganic salts in liquid  ammonia
Source: Fluid Phase Equilib., 2013, 10.1016/j.fluid.2013.06.042
Compound 1: ammonia, H3N, purity 99.98%
Compound 2: sodium thiocyanate, CNNaS, purity 98%
Compound 3: lithium nitrate, LiNO3, purity 98%
Compound 4: water, H2O, purity 99.8%

System: water + lithium nitrate; phases: Liquid, Crystal
Fixed: Pressure, kPa = 101
Property: Solid-liquid equilibrium temperature, K (Liquid); method: Visual observation
Mass fraction of lithium nitrate	Solid-liquid equilibrium temperature, K	uncertainty
.3455	278.6	.4
.3759	286.9	.4
.4043	292.5	.4
.4748	301.7	.4
.5653	303.6	.4
.6088	306.3	.4
.6251	329.8	.4
.6382	339.7	.4

System: water + lithium nitrate; phases: Liquid, Crystal
Fixed: Pressure, kPa = 101
Property: Solid-liquid equilibrium temperature, K (Liquid); method: imiage processing methods
Mass fraction of lithium nitrate	Solid-liquid equilibrium temperature, K	uncertainty
.3806	285.8	.4
.4026	293.4	.4
.4715	300.2	.4
.6098	320.4	.4
.6159	323.4	.4
.6166	323.6	.4
.6259	330.1	.4

System: ammonia + lithium nitrate; phases: Liquid, Crystal
Fixed: Pressure, kPa = 2000
Property: Solid-liquid equilibrium temperature, K (Liquid); method: Visual observation
Mass fraction of lithium nitrate	Solid-liquid equilibrium temperature, K	uncertainty
.4768	276	.4
.4988	277.9	.4
.5284	276	.4
.5689	265	.4
.6291	281.3	.4
.647	287.3	.4
.6603	288.5	.4
.678	289.9	.4
.6847	282.2	.4
.7047	300.7	.4
.716	315.2	.4
.7272	330.8	.4
.7319	334.7	.4
.7458	352	.4

System: sodium thiocyanate + ammonia; phases: Liquid, Crystal
Fixed: Pressure, kPa = 2000
Property: Solid-liquid equilibrium temperature, K (Liquid); method: Visual observation
Mass fraction of sodium thiocyanate	Solid-liquid equilibrium temperature, K	uncertainty
.4768	276	.4
.5283	263.8	.4
.5627	266.6	.4
.5774	268	.4
.594	266.7	.4
.6099	264.1	.4
.6418	256	.4
.6529	263.5	.4
.6549	280.8	.4
.6632	298.6	.4
.6793	327.9	.4
.6809	331	.4
.6843	333.5	.4
