Measured thermophysical data. Densities of a deep eutectic solvent based on choline chloride and glycerol and its aqueous mixtures at elevated pressures
Source: Fluid Phase Equilib., 2012, 10.1016/j.fluid.2012.08.016
Compound 1: (2-hydroxyethyl)trimethylammonium chloride, C5H14ClNO, purity 98%
Compound 2: 1,2,3-propanetriol, C3H8O3, purity 98%
Compound 3: water, H2O

System: 1,2,3-propanetriol + (2-hydroxyethyl)trimethylammonium chloride; phases: Liquid
Fixed: Mole fraction of 1,2,3-propanetriol = .667
Property: Mass density, kg/m3 (Liquid); method: Vibrating tube method
Temperature, K	Pressure, kPa	Mass density, kg/m3	uncertainty
298.15	100	1192.1	1.1921
298.15	5000	1193.6	1.1936
298.15	10000	1195	1.195
298.15	15000	1196.3	1.1963
298.15	20000	1197.7	1.1977
298.15	25000	1199.1	1.1991
298.15	30000	1200.4	1.2004
298.15	35000	1201.7	1.2017
298.15	40000	1203	1.203
298.15	45000	1204.3	1.2043
298.15	50000	1205.6	1.2056
303.15	100	1189.2	1.1892
303.15	5000	1190.7	1.1907
303.15	10000	1192.1	1.1921
303.15	15000	1193.5	1.1935
303.15	20000	1194.8	1.1948
303.15	25000	1196.2	1.1962
303.15	30000	1197.6	1.1976
303.15	35000	1198.9	1.1989
303.15	40000	1200.2	1.2002
303.15	45000	1201.5	1.2015
303.15	50000	1202.8	1.2028
308.15	100	1186.2	1.1862
308.15	5000	1187.7	1.1877
308.15	10000	1189.2	1.1892
308.15	15000	1190.6	1.1906
308.15	20000	1192	1.192
308.15	25000	1193.3	1.1933
308.15	30000	1194.7	1.1947
308.15	35000	1196	1.196
308.15	40000	1197.4	1.1974
308.15	45000	1198.7	1.1987
308.15	50000	1200	1.2
313.15	100	1183.4	1.1834
313.15	5000	1184.9	1.1849
313.15	10000	1186.3	1.1863
313.15	15000	1187.7	1.1877
313.15	20000	1189.1	1.1891
313.15	25000	1190.5	1.1905
313.15	30000	1191.9	1.1919
313.15	35000	1193.3	1.1933
313.15	40000	1194.6	1.1946
313.15	45000	1195.9	1.1959
313.15	50000	1197.2	1.1972
318.15	100	1180.5	1.1805
318.15	5000	1182	1.182
318.15	10000	1183.5	1.1835
318.15	15000	1184.9	1.1849
318.15	20000	1186.3	1.1863
318.15	25000	1187.7	1.1877
318.15	30000	1189.1	1.1891
318.15	35000	1190.4	1.1904
318.15	40000	1191.8	1.1918
318.15	45000	1193.1	1.1931
318.15	50000	1194.4	1.1944
323.15	100	1177.7	1.1777
323.15	5000	1179.2	1.1792
323.15	10000	1180.6	1.1806
323.15	15000	1182.1	1.1821
323.15	20000	1183.5	1.1835
323.15	25000	1184.9	1.1849
323.15	30000	1186.3	1.1863
323.15	35000	1187.7	1.1877
323.15	40000	1189.1	1.1891
323.15	45000	1190.4	1.1904
323.15	50000	1191.7	1.1917

System: 1,2,3-propanetriol + (2-hydroxyethyl)trimethylammonium chloride + water; phases: Liquid
Fixed: Solvent: Mole fraction of 1,2,3-propanetriol = .667
Property: Mass density, kg/m3 (Liquid); method: Vibrating tube method
Temperature, K	Pressure, kPa	Mole fraction of water	Mass density, kg/m3	uncertainty
298.15	100	.8998	1074.2	1.0742
298.15	5000	.8998	1075.9	1.0759
298.15	10000	.8998	1077.6	1.0776
298.15	15000	.8998	1079.3	1.0793
298.15	20000	.8998	1081	1.081
298.15	25000	.8998	1082.7	1.0827
298.15	30000	.8998	1084.4	1.0844
298.15	35000	.8998	1085.9	1.0859
298.15	40000	.8998	1087.7	1.0877
298.15	45000	.8998	1089.3	1.0893
298.15	50000	.8998	1090.9	1.0909
303.15	100	.8998	1072	1.072
303.15	5000	.8998	1073.7	1.0737
303.15	10000	.8998	1075.4	1.0754
303.15	15000	.8998	1077.1	1.0771
303.15	20000	.8998	1078.8	1.0788
303.15	25000	.8998	1080.5	1.0805
303.15	30000	.8998	1082.2	1.0822
303.15	35000	.8998	1083.7	1.0837
303.15	40000	.8998	1085.4	1.0854
303.15	45000	.8998	1087	1.087
303.15	50000	.8998	1088.6	1.0886
308.15	100	.8998	1069.7	1.0697
308.15	5000	.8998	1071.4	1.0714
308.15	10000	.8998	1073.1	1.0731
308.15	15000	.8998	1074.8	1.0748
308.15	20000	.8998	1076.6	1.0766
308.15	25000	.8998	1078.2	1.0782
308.15	30000	.8998	1079.9	1.0799
308.15	35000	.8998	1081.4	1.0814
308.15	40000	.8998	1083.2	1.0832
308.15	45000	.8998	1084.8	1.0848
308.15	50000	.8998	1086.4	1.0864
313.15	100	.8998	1067.4	1.0674
313.15	5000	.8998	1069.1	1.0691
313.15	10000	.8998	1070.7	1.0707
313.15	15000	.8998	1072.4	1.0724
313.15	20000	.8998	1074.1	1.0741
313.15	25000	.8998	1075.9	1.0759
313.15	30000	.8998	1077.5	1.0775
313.15	35000	.8998	1079.1	1.0791
313.15	40000	.8998	1080.8	1.0808
313.15	45000	.8998	1082.4	1.0824
313.15	50000	.8998	1084	1.084
318.15	100	.8998	1064.8	1.0648
318.15	5000	.8998	1066.6	1.0666
318.15	10000	.8998	1068.2	1.0682
318.15	15000	.8998	1069.9	1.0699
318.15	20000	.8998	1071.6	1.0716
318.15	25000	.8998	1073.4	1.0734
318.15	30000	.8998	1075.1	1.0751
318.15	35000	.8998	1076.6	1.0766
318.15	40000	.8998	1078.4	1.0784
318.15	45000	.8998	1080	1.08
318.15	50000	.8998	1081.6	1.0816
323.15	100	.8998	1062.3	1.0623
323.15	5000	.8998	1064	1.064
323.15	10000	.8998	1065.7	1.0657
323.15	15000	.8998	1067.4	1.0674
323.15	20000	.8998	1069.1	1.0691
323.15	25000	.8998	1070.9	1.0709
323.15	30000	.8998	1072.6	1.0726
323.15	35000	.8998	1074.2	1.0742
323.15	40000	.8998	1075.9	1.0759
323.15	45000	.8998	1077.5	1.0775
323.15	50000	.8998	1079.1	1.0791
298.15	100	.7999	1115	1.115
298.15	5000	.7999	1116.5	1.1165
298.15	10000	.7999	1118	1.118
298.15	15000	.7999	1119.5	1.1195
298.15	20000	.7999	1120.9	1.1209
298.15	25000	.7999	1122.4	1.1224
298.15	30000	.7999	1123.9	1.1239
298.15	35000	.7999	1125.3	1.1253
298.15	40000	.7999	1126.9	1.1269
298.15	45000	.7999	1128.3	1.1283
298.15	50000	.7999	1129.7	1.1297
303.15	100	.7999	1112.5	1.1125
303.15	5000	.7999	1114	1.114
303.15	10000	.7999	1115.6	1.1156
303.15	15000	.7999	1117.1	1.1171
303.15	20000	.7999	1118.5	1.1185
303.15	25000	.7999	1119.9	1.1199
303.15	30000	.7999	1121.5	1.1215
303.15	35000	.7999	1122.8	1.1228
303.15	40000	.7999	1124.4	1.1244
303.15	45000	.7999	1125.9	1.1259
303.15	50000	.7999	1127.3	1.1273
308.15	100	.7999	1109.9	1.1099
308.15	5000	.7999	1111.4	1.1114
308.15	10000	.7999	1113	1.113
308.15	15000	.7999	1114.5	1.1145
308.15	20000	.7999	1116	1.116
308.15	25000	.7999	1117.4	1.1174
308.15	30000	.7999	1119	1.119
308.15	35000	.7999	1120.3	1.1203
308.15	40000	.7999	1121.9	1.1219
308.15	45000	.7999	1123.4	1.1234
308.15	50000	.7999	1124.8	1.1248
313.15	100	.7999	1107.3	1.1073
313.15	5000	.7999	1108.8	1.1088
313.15	10000	.7999	1110.4	1.1104
313.15	15000	.7999	1111.9	1.1119
313.15	20000	.7999	1113.4	1.1134
313.15	25000	.7999	1114.9	1.1149
313.15	30000	.7999	1116.4	1.1164
313.15	35000	.7999	1117.8	1.1178
313.15	40000	.7999	1119.4	1.1194
313.15	45000	.7999	1120.8	1.1208
313.15	50000	.7999	1122.2	1.1222
318.15	100	.7999	1104.6	1.1046
318.15	5000	.7999	1106.1	1.1061
318.15	10000	.7999	1107.7	1.1077
318.15	15000	.7999	1109.2	1.1092
318.15	20000	.7999	1110.7	1.1107
318.15	25000	.7999	1112.2	1.1122
318.15	30000	.7999	1113.8	1.1138
318.15	35000	.7999	1115.1	1.1151
318.15	40000	.7999	1116.8	1.1168
318.15	45000	.7999	1118.2	1.1182
318.15	50000	.7999	1119.6	1.1196
323.15	100	.7999	1101.9	1.1019
323.15	5000	.7999	1103.4	1.1034
323.15	10000	.7999	1105	1.105
323.15	15000	.7999	1106.5	1.1065
323.15	20000	.7999	1108	1.108
323.15	25000	.7999	1109.5	1.1095
323.15	30000	.7999	1111	1.111
323.15	35000	.7999	1112.5	1.1125
323.15	40000	.7999	1114.1	1.1141
323.15	45000	.7999	1115.5	1.1155
323.15	50000	.7999	1116.9	1.1169
298.15	100	.7	1139.5	1.1395
298.15	5000	.7	1140.9	1.1409
298.15	10000	.7	1142.4	1.1424
298.15	15000	.7	1143.8	1.1438
298.15	20000	.7	1145.2	1.1452
298.15	25000	.7	1146.6	1.1466
298.15	30000	.7	1148	1.148
298.15	35000	.7	1149.4	1.1494
298.15	40000	.7	1150.8	1.1508
298.15	45000	.7	1152.1	1.1521
298.15	50000	.7	1153.4	1.1534
303.15	100	.7	1136.9	1.1369
303.15	5000	.7	1138.3	1.1383
303.15	10000	.7	1139.8	1.1398
303.15	15000	.7	1141.2	1.1412
303.15	20000	.7	1142.6	1.1426
303.15	25000	.7	1144	1.144
303.15	30000	.7	1145.4	1.1454
303.15	35000	.7	1146.8	1.1468
303.15	40000	.7	1148.2	1.1482
303.15	45000	.7	1149.5	1.1495
303.15	50000	.7	1150.8	1.1508
308.15	100	.7	1134.2	1.1342
308.15	5000	.7	1135.6	1.1356
308.15	10000	.7	1137.1	1.1371
308.15	15000	.7	1138.5	1.1385
308.15	20000	.7	1140	1.14
308.15	25000	.7	1141.3	1.1413
308.15	30000	.7	1142.8	1.1428
308.15	35000	.7	1144.1	1.1441
308.15	40000	.7	1145.6	1.1456
308.15	45000	.7	1146.9	1.1469
308.15	50000	.7	1148.2	1.1482
313.15	100	.7	1131.5	1.1315
313.15	5000	.7	1132.9	1.1329
313.15	10000	.7	1134.3	1.1343
313.15	15000	.7	1135.8	1.1358
313.15	20000	.7	1137.2	1.1372
313.15	25000	.7	1138.7	1.1387
313.15	30000	.7	1140.1	1.1401
313.15	35000	.7	1141.5	1.1415
313.15	40000	.7	1142.9	1.1429
313.15	45000	.7	1144.2	1.1442
313.15	50000	.7	1145.6	1.1456
318.15	100	.7	1128.7	1.1287
318.15	5000	.7	1130.1	1.1301
318.15	10000	.7	1131.6	1.1316
318.15	15000	.7	1133.1	1.1331
318.15	20000	.7	1134.5	1.1345
318.15	25000	.7	1136	1.136
318.15	30000	.7	1137.4	1.1374
318.15	35000	.7	1138.8	1.1388
318.15	40000	.7	1140.2	1.1402
318.15	45000	.7	1141.5	1.1415
318.15	50000	.7	1142.9	1.1429
323.15	100	.7	1125.9	1.1259
323.15	5000	.7	1127.3	1.1273
323.15	10000	.7	1128.8	1.1288
323.15	15000	.7	1130.3	1.1303
323.15	20000	.7	1131.7	1.1317
323.15	25000	.7	1133.3	1.1333
323.15	30000	.7	1134.7	1.1347
323.15	35000	.7	1136.1	1.1361
323.15	40000	.7	1137.6	1.1376
323.15	45000	.7	1138.8	1.1388
323.15	50000	.7	1140.2	1.1402
298.15	100	.6002	1155.5	1.1555
298.15	5000	.6002	1156.9	1.1569
298.15	10000	.6002	1158.3	1.1583
298.15	15000	.6002	1159.7	1.1597
298.15	20000	.6002	1161.1	1.1611
298.15	25000	.6002	1162.4	1.1624
298.15	30000	.6002	1163.8	1.1638
298.15	35000	.6002	1165.1	1.1651
298.15	40000	.6002	1166.5	1.1665
298.15	45000	.6002	1167.7	1.1677
298.15	50000	.6002	1169.1	1.1691
303.15	100	.6002	1152.8	1.1528
303.15	5000	.6002	1154.2	1.1542
303.15	10000	.6002	1155.6	1.1556
303.15	15000	.6002	1157	1.157
303.15	20000	.6002	1158.4	1.1584
303.15	25000	.6002	1159.7	1.1597
303.15	30000	.6002	1161.2	1.1612
303.15	35000	.6002	1162.5	1.1625
303.15	40000	.6002	1163.9	1.1639
303.15	45000	.6002	1165.1	1.1651
303.15	50000	.6002	1166.4	1.1664
308.15	100	.6002	1150	1.15
308.15	5000	.6002	1151.4	1.1514
308.15	10000	.6002	1152.8	1.1528
308.15	15000	.6002	1154.3	1.1543
308.15	20000	.6002	1155.7	1.1557
308.15	25000	.6002	1157	1.157
308.15	30000	.6002	1158.4	1.1584
308.15	35000	.6002	1159.7	1.1597
308.15	40000	.6002	1161.2	1.1612
308.15	45000	.6002	1162.4	1.1624
308.15	50000	.6002	1163.7	1.1637
313.15	100	.6002	1147.3	1.1473
313.15	5000	.6002	1148.7	1.1487
313.15	10000	.6002	1150.1	1.1501
313.15	15000	.6002	1151.5	1.1515
313.15	20000	.6002	1152.9	1.1529
313.15	25000	.6002	1154.3	1.1543
313.15	30000	.6002	1155.7	1.1557
313.15	35000	.6002	1157.1	1.1571
313.15	40000	.6002	1158.5	1.1585
313.15	45000	.6002	1159.7	1.1597
313.15	50000	.6002	1161	1.161
318.15	100	.6002	1144.5	1.1445
318.15	5000	.6002	1145.9	1.1459
318.15	10000	.6002	1147.3	1.1473
318.15	15000	.6002	1148.8	1.1488
318.15	20000	.6002	1150.2	1.1502
318.15	25000	.6002	1151.6	1.1516
318.15	30000	.6002	1152.9	1.1529
318.15	35000	.6002	1154.3	1.1543
318.15	40000	.6002	1155.7	1.1557
318.15	45000	.6002	1157	1.157
318.15	50000	.6002	1158.3	1.1583
323.15	100	.6002	1141.7	1.1417
323.15	5000	.6002	1143.1	1.1431
323.15	10000	.6002	1144.5	1.1445
323.15	15000	.6002	1146	1.146
323.15	20000	.6002	1147.4	1.1474
323.15	25000	.6002	1148.8	1.1488
323.15	30000	.6002	1150.1	1.1501
323.15	35000	.6002	1151.6	1.1516
323.15	40000	.6002	1153	1.153
323.15	45000	.6002	1154.3	1.1543
323.15	50000	.6002	1155.6	1.1556
298.15	100	.4996	1166.7	1.1667
298.15	5000	.4996	1168.1	1.1681
298.15	10000	.4996	1169.5	1.1695
298.15	15000	.4996	1170.8	1.1708
298.15	20000	.4996	1172.2	1.1722
298.15	25000	.4996	1173.6	1.1736
298.15	30000	.4996	1174.8	1.1748
298.15	35000	.4996	1176.1	1.1761
298.15	40000	.4996	1177.4	1.1774
298.15	45000	.4996	1178.7	1.1787
298.15	50000	.4996	1180	1.18
303.15	100	.4996	1163.9	1.1639
303.15	5000	.4996	1165.3	1.1653
303.15	10000	.4996	1166.7	1.1667
303.15	15000	.4996	1168.1	1.1681
303.15	20000	.4996	1169.4	1.1694
303.15	25000	.4996	1170.8	1.1708
303.15	30000	.4996	1172.1	1.1721
303.15	35000	.4996	1173.4	1.1734
303.15	40000	.4996	1174.7	1.1747
303.15	45000	.4996	1176	1.176
303.15	50000	.4996	1177.3	1.1773
308.15	100	.4996	1161	1.161
308.15	5000	.4996	1162.5	1.1625
308.15	10000	.4996	1163.9	1.1639
308.15	15000	.4996	1165.3	1.1653
308.15	20000	.4996	1166.7	1.1667
308.15	25000	.4996	1168	1.168
308.15	30000	.4996	1169.3	1.1693
308.15	35000	.4996	1170.6	1.1706
308.15	40000	.4996	1172.2	1.1722
308.15	45000	.4996	1173.3	1.1733
308.15	50000	.4996	1174.6	1.1746
313.15	100	.4996	1158.3	1.1583
313.15	5000	.4996	1159.7	1.1597
313.15	10000	.4996	1161.1	1.1611
313.15	15000	.4996	1162.5	1.1625
313.15	20000	.4996	1163.9	1.1639
313.15	25000	.4996	1165.3	1.1653
313.15	30000	.4996	1166.6	1.1666
313.15	35000	.4996	1167.9	1.1679
313.15	40000	.4996	1169.3	1.1693
313.15	45000	.4996	1170.6	1.1706
313.15	50000	.4996	1171.9	1.1719
318.15	100	.4996	1155.5	1.1555
318.15	5000	.4996	1156.9	1.1569
318.15	10000	.4996	1158.3	1.1583
318.15	15000	.4996	1159.7	1.1597
318.15	20000	.4996	1161.1	1.1611
318.15	25000	.4996	1162.5	1.1625
318.15	30000	.4996	1163.8	1.1638
318.15	35000	.4996	1165.1	1.1651
318.15	40000	.4996	1166.5	1.1665
318.15	45000	.4996	1167.8	1.1678
318.15	50000	.4996	1169.1	1.1691
323.15	100	.4996	1152.7	1.1527
323.15	5000	.4996	1154	1.154
323.15	10000	.4996	1155.4	1.1554
323.15	15000	.4996	1156.9	1.1569
323.15	20000	.4996	1158.3	1.1583
323.15	25000	.4996	1159.7	1.1597
323.15	30000	.4996	1161	1.161
323.15	35000	.4996	1162.4	1.1624
323.15	40000	.4996	1163.8	1.1638
323.15	45000	.4996	1165.1	1.1651
323.15	50000	.4996	1166.4	1.1664
298.15	100	.4002	1174.6	1.1746
298.15	5000	.4002	1176	1.176
298.15	10000	.4002	1177.4	1.1774
298.15	15000	.4002	1178.7	1.1787
298.15	20000	.4002	1180.1	1.1801
298.15	25000	.4002	1181.5	1.1815
298.15	30000	.4002	1182.7	1.1827
298.15	35000	.4002	1184.1	1.1841
298.15	40000	.4002	1185.4	1.1854
298.15	45000	.4002	1186.6	1.1866
298.15	50000	.4002	1187.9	1.1879
303.15	100	.4002	1171.8	1.1718
303.15	5000	.4002	1173.2	1.1732
303.15	10000	.4002	1174.6	1.1746
303.15	15000	.4002	1176	1.176
303.15	20000	.4002	1177.3	1.1773
303.15	25000	.4002	1178.7	1.1787
303.15	30000	.4002	1180	1.18
303.15	35000	.4002	1181.3	1.1813
303.15	40000	.4002	1182.6	1.1826
303.15	45000	.4002	1183.9	1.1839
303.15	50000	.4002	1185.2	1.1852
308.15	100	.4002	1168.9	1.1689
308.15	5000	.4002	1170.3	1.1703
308.15	10000	.4002	1171.7	1.1717
308.15	15000	.4002	1173.2	1.1732
308.15	20000	.4002	1174.5	1.1745
308.15	25000	.4002	1175.8	1.1758
308.15	30000	.4002	1177.2	1.1772
308.15	35000	.4002	1178.5	1.1785
308.15	40000	.4002	1179.9	1.1799
308.15	45000	.4002	1181.2	1.1812
308.15	50000	.4002	1182.5	1.1825
313.15	100	.4002	1166.2	1.1662
313.15	5000	.4002	1167.5	1.1675
313.15	10000	.4002	1168.9	1.1689
313.15	15000	.4002	1170.3	1.1703
313.15	20000	.4002	1171.7	1.1717
313.15	25000	.4002	1173	1.173
313.15	30000	.4002	1174.4	1.1744
313.15	35000	.4002	1175.8	1.1758
313.15	40000	.4002	1177.1	1.1771
313.15	45000	.4002	1178.4	1.1784
313.15	50000	.4002	1179.7	1.1797
318.15	100	.4002	1163.3	1.1633
318.15	5000	.4002	1164.6	1.1646
318.15	10000	.4002	1166.1	1.1661
318.15	15000	.4002	1167.5	1.1675
318.15	20000	.4002	1168.9	1.1689
318.15	25000	.4002	1170.2	1.1702
318.15	30000	.4002	1171.6	1.1716
318.15	35000	.4002	1172.9	1.1729
318.15	40000	.4002	1174.3	1.1743
318.15	45000	.4002	1175.6	1.1756
318.15	50000	.4002	1176.9	1.1769
323.15	100	.4002	1160.5	1.1605
323.15	5000	.4002	1161.8	1.1618
323.15	10000	.4002	1163.2	1.1632
323.15	15000	.4002	1164.7	1.1647
323.15	20000	.4002	1166.1	1.1661
323.15	25000	.4002	1167.4	1.1674
323.15	30000	.4002	1168.8	1.1688
323.15	35000	.4002	1170.2	1.1702
323.15	40000	.4002	1171.6	1.1716
323.15	45000	.4002	1172.8	1.1728
323.15	50000	.4002	1174.2	1.1742
298.15	100	.2999	1180.7	1.1807
298.15	5000	.2999	1182.1	1.1821
298.15	10000	.2999	1183.5	1.1835
298.15	15000	.2999	1184.8	1.1848
298.15	20000	.2999	1186.1	1.1861
298.15	25000	.2999	1187.4	1.1874
298.15	30000	.2999	1188.7	1.1887
298.15	35000	.2999	1190	1.19
298.15	40000	.2999	1191.3	1.1913
298.15	45000	.2999	1192.6	1.1926
298.15	50000	.2999	1193.9	1.1939
303.15	100	.2999	1177.8	1.1778
303.15	5000	.2999	1179.2	1.1792
303.15	10000	.2999	1180.6	1.1806
303.15	15000	.2999	1182	1.182
303.15	20000	.2999	1183.2	1.1832
303.15	25000	.2999	1184.6	1.1846
303.15	30000	.2999	1186	1.186
303.15	35000	.2999	1187.3	1.1873
303.15	40000	.2999	1188.6	1.1886
303.15	45000	.2999	1189.9	1.1899
303.15	50000	.2999	1191.2	1.1912
308.15	100	.2999	1174.8	1.1748
308.15	5000	.2999	1176.2	1.1762
308.15	10000	.2999	1177.7	1.1777
308.15	15000	.2999	1179.1	1.1791
308.15	20000	.2999	1180.4	1.1804
308.15	25000	.2999	1181.7	1.1817
308.15	30000	.2999	1183.1	1.1831
308.15	35000	.2999	1184.4	1.1844
308.15	40000	.2999	1185.8	1.1858
308.15	45000	.2999	1187.1	1.1871
308.15	50000	.2999	1188.4	1.1884
313.15	100	.2999	1172	1.172
313.15	5000	.2999	1173.4	1.1734
313.15	10000	.2999	1174.8	1.1748
313.15	15000	.2999	1176.2	1.1762
313.15	20000	.2999	1177.5	1.1775
313.15	25000	.2999	1178.9	1.1789
313.15	30000	.2999	1180.3	1.1803
313.15	35000	.2999	1181.7	1.1817
313.15	40000	.2999	1183	1.183
313.15	45000	.2999	1184.3	1.1843
313.15	50000	.2999	1185.6	1.1856
318.15	100	.2999	1169.1	1.1691
318.15	5000	.2999	1170.5	1.1705
318.15	10000	.2999	1172	1.172
318.15	15000	.2999	1173.4	1.1734
318.15	20000	.2999	1174.7	1.1747
318.15	25000	.2999	1176.1	1.1761
318.15	30000	.2999	1177.5	1.1775
318.15	35000	.2999	1178.8	1.1788
318.15	40000	.2999	1180.2	1.1802
318.15	45000	.2999	1181.5	1.1815
318.15	50000	.2999	1182.8	1.1828
323.15	100	.2999	1166.3	1.1663
323.15	5000	.2999	1167.7	1.1677
323.15	10000	.2999	1169.1	1.1691
323.15	15000	.2999	1170.6	1.1706
323.15	20000	.2999	1171.9	1.1719
323.15	25000	.2999	1173.3	1.1733
323.15	30000	.2999	1174.7	1.1747
323.15	35000	.2999	1176.1	1.1761
323.15	40000	.2999	1177.5	1.1775
323.15	45000	.2999	1178.8	1.1788
323.15	50000	.2999	1180.1	1.1801
298.15	100	.1999	1185.3	1.1853
298.15	5000	.1999	1186.7	1.1867
298.15	10000	.1999	1188.1	1.1881
298.15	15000	.1999	1189.4	1.1894
298.15	20000	.1999	1190.7	1.1907
298.15	25000	.1999	1192.1	1.1921
298.15	30000	.1999	1193.4	1.1934
298.15	35000	.1999	1194.7	1.1947
298.15	40000	.1999	1196	1.196
298.15	45000	.1999	1197.3	1.1973
298.15	50000	.1999	1198.6	1.1986
303.15	100	.1999	1182.4	1.1824
303.15	5000	.1999	1183.8	1.1838
303.15	10000	.1999	1185.2	1.1852
303.15	15000	.1999	1186.6	1.1866
303.15	20000	.1999	1187.8	1.1878
303.15	25000	.1999	1189.2	1.1892
303.15	30000	.1999	1190.6	1.1906
303.15	35000	.1999	1191.9	1.1919
303.15	40000	.1999	1193.2	1.1932
303.15	45000	.1999	1194.5	1.1945
303.15	50000	.1999	1195.8	1.1958
308.15	100	.1999	1179.4	1.1794
308.15	5000	.1999	1180.8	1.1808
308.15	10000	.1999	1182.3	1.1823
308.15	15000	.1999	1183.7	1.1837
308.15	20000	.1999	1185	1.185
308.15	25000	.1999	1186.3	1.1863
308.15	30000	.1999	1187.7	1.1877
308.15	35000	.1999	1189	1.189
308.15	40000	.1999	1190.4	1.1904
308.15	45000	.1999	1191.7	1.1917
308.15	50000	.1999	1193	1.193
313.15	100	.1999	1176.6	1.1766
313.15	5000	.1999	1178	1.178
313.15	10000	.1999	1179.4	1.1794
313.15	15000	.1999	1180.8	1.1808
313.15	20000	.1999	1182.1	1.1821
313.15	25000	.1999	1183.5	1.1835
313.15	30000	.1999	1184.9	1.1849
313.15	35000	.1999	1186.3	1.1863
313.15	40000	.1999	1187.6	1.1876
313.15	45000	.1999	1188.9	1.1889
313.15	50000	.1999	1190.2	1.1902
318.15	100	.1999	1173.7	1.1737
318.15	5000	.1999	1175.1	1.1751
318.15	10000	.1999	1176.6	1.1766
318.15	15000	.1999	1178	1.178
318.15	20000	.1999	1179.3	1.1793
318.15	25000	.1999	1180.7	1.1807
318.15	30000	.1999	1182.1	1.1821
318.15	35000	.1999	1183.4	1.1834
318.15	40000	.1999	1184.8	1.1848
318.15	45000	.1999	1186.1	1.1861
318.15	50000	.1999	1187.4	1.1874
323.15	100	.1999	1170.9	1.1709
323.15	5000	.1999	1172.3	1.1723
323.15	10000	.1999	1173.7	1.1737
323.15	15000	.1999	1175.2	1.1752
323.15	20000	.1999	1176.5	1.1765
323.15	25000	.1999	1177.9	1.1779
323.15	30000	.1999	1179.3	1.1793
323.15	35000	.1999	1180.7	1.1807
323.15	40000	.1999	1182.1	1.1821
323.15	45000	.1999	1183.4	1.1834
323.15	50000	.1999	1184.7	1.1847
298.15	100	.1	1189	1.189
298.15	5000	.1	1190.5	1.1905
298.15	10000	.1	1191.8	1.1918
298.15	15000	.1	1193.1	1.1931
298.15	20000	.1	1194.5	1.1945
298.15	25000	.1	1195.9	1.1959
298.15	30000	.1	1197.2	1.1972
298.15	35000	.1	1198.5	1.1985
298.15	40000	.1	1199.8	1.1998
298.15	45000	.1	1201.1	1.2011
298.15	50000	.1	1202.4	1.2024
303.15	100	.1	1186.1	1.1861
303.15	5000	.1	1187.6	1.1876
303.15	10000	.1	1189	1.189
303.15	15000	.1	1190.3	1.1903
303.15	20000	.1	1191.6	1.1916
303.15	25000	.1	1193	1.193
303.15	30000	.1	1194.4	1.1944
303.15	35000	.1	1195.7	1.1957
303.15	40000	.1	1197	1.197
303.15	45000	.1	1198.3	1.1983
303.15	50000	.1	1199.6	1.1996
308.15	100	.1	1183.1	1.1831
308.15	5000	.1	1184.6	1.1846
308.15	10000	.1	1186.1	1.1861
308.15	15000	.1	1187.4	1.1874
308.15	20000	.1	1188.8	1.1888
308.15	25000	.1	1190.1	1.1901
308.15	30000	.1	1191.5	1.1915
308.15	35000	.1	1192.8	1.1928
308.15	40000	.1	1194.2	1.1942
308.15	45000	.1	1195.5	1.1955
308.15	50000	.1	1196.8	1.1968
313.15	100	.1	1180.3	1.1803
313.15	5000	.1	1181.8	1.1818
313.15	10000	.1	1183.2	1.1832
313.15	15000	.1	1184.5	1.1845
313.15	20000	.1	1185.9	1.1859
313.15	25000	.1	1187.3	1.1873
313.15	30000	.1	1188.7	1.1887
313.15	35000	.1	1190.1	1.1901
313.15	40000	.1	1191.4	1.1914
313.15	45000	.1	1192.7	1.1927
313.15	50000	.1	1194	1.194
318.15	100	.1	1177.4	1.1774
318.15	5000	.1	1178.9	1.1789
318.15	10000	.1	1180.4	1.1804
318.15	15000	.1	1181.7	1.1817
318.15	20000	.1	1183.1	1.1831
318.15	25000	.1	1184.5	1.1845
318.15	30000	.1	1185.9	1.1859
318.15	35000	.1	1187.2	1.1872
318.15	40000	.1	1188.6	1.1886
318.15	45000	.1	1189.9	1.1899
318.15	50000	.1	1191.2	1.1912
323.15	100	.1	1174.6	1.1746
323.15	5000	.1	1176.1	1.1761
323.15	10000	.1	1177.5	1.1775
323.15	15000	.1	1178.9	1.1789
323.15	20000	.1	1180.3	1.1803
323.15	25000	.1	1181.7	1.1817
323.15	30000	.1	1183.1	1.1831
323.15	35000	.1	1184.5	1.1845
323.15	40000	.1	1185.9	1.1859
323.15	45000	.1	1187.2	1.1872
323.15	50000	.1	1188.5	1.1885
