Measured thermophysical data. Ionic liquids on desulfurization of fuel oils
Source: Fluid Phase Equilib., 2010, 10.1016/j.fluid.2009.12.020
Compound 1: hexane, C6H14
Compound 2: dodecane, C12H26
Compound 3: hexadecane, C16H34
Compound 4: thiophene, C4H4S
Compound 5: pyridine, C5H5N
Compound 6: 1-hexyl-3,5-dimethylpyridinium bis(trifluoromethylsulfonyl)imide, C15H22F6N2O4S2

System: thiophene + hexane + 1-hexyl-3,5-dimethylpyridinium bis(trifluoromethylsulfonyl)imide; phases: Liquid mixture 2, Liquid mixture 1
Fixed: Temperature, K = 298.15
Fixed: Pressure, kPa = 101
Property: Mole fraction of 1-hexyl-3,5-dimethylpyridinium bis(trifluoromethylsulfonyl)imide (Liquid mixture 2); method: Chromatography
Property: Mole fraction of hexane (Liquid mixture 2); method: Chromatography
Property: Mole fraction of 1-hexyl-3,5-dimethylpyridinium bis(trifluoromethylsulfonyl)imide (Liquid mixture 1); method: Chromatography
Property: Mole fraction of thiophene (Liquid mixture 1); method: Chromatography
Property: Mole fraction of hexane (Liquid mixture 1); method: Chromatography
Mole fraction of thiophene	Mole fraction of 1-hexyl-3,5-dimethylpyridinium bis(trifluoromethylsulfonyl)imide	uncertainty	Mole fraction of hexane	uncertainty	Mole fraction of 1-hexyl-3,5-dimethylpyridinium bis(trifluoromethylsulfonyl)imide	uncertainty	Mole fraction of thiophene	uncertainty	Mole fraction of hexane	uncertainty
0	0	.007	1	.005	.795	.007	0	.005	.205	.005
.78	0	.007	.22	.005	.168	.007	.746	.005	.086	.005
.887	0	.007	.113	.005	.138	.007	.805	.005	.057	.005
.931	0	.007	.069	.005	.133	.007	.828	.005	.039	.005
1	0	.007	0	.005	.082	.007	.918	.005	0	.005
.032	0	.007	.968	.005	.691	.007	.112	.005	.197	.005
.079	0	.007	.921	.005	.58	.007	.243	.005	.177	.005
.173	0	.007	.827	.005	.453	.007	.399	.005	.148	.005
.357	0	.007	.643	.005	.314	.007	.553	.005	.133	.005
.456	0	.007	.544	.005	.262	.007	.615	.005	.123	.005
.495	0	.007	.505	.005	.244	.007	.638	.005	.118	.005
.598	0	.007	.402	.005	.216	.007	.674	.005	.11	.005
.637	0	.007	.363	.005	.215	.007	.68	.005	.105	.005

System: thiophene + dodecane + 1-hexyl-3,5-dimethylpyridinium bis(trifluoromethylsulfonyl)imide; phases: Liquid mixture 2, Liquid mixture 1
Fixed: Temperature, K = 298.15
Fixed: Pressure, kPa = 101
Property: Mole fraction of 1-hexyl-3,5-dimethylpyridinium bis(trifluoromethylsulfonyl)imide (Liquid mixture 2); method: Chromatography
Property: Mole fraction of dodecane (Liquid mixture 2); method: Chromatography
Property: Mole fraction of thiophene (Liquid mixture 1); method: Chromatography
Property: Mole fraction of 1-hexyl-3,5-dimethylpyridinium bis(trifluoromethylsulfonyl)imide (Liquid mixture 1); method: Chromatography
Property: Mole fraction of dodecane (Liquid mixture 1); method: Chromatography
Mole fraction of thiophene	Mole fraction of 1-hexyl-3,5-dimethylpyridinium bis(trifluoromethylsulfonyl)imide	uncertainty	Mole fraction of dodecane	uncertainty	Mole fraction of thiophene	uncertainty	Mole fraction of 1-hexyl-3,5-dimethylpyridinium bis(trifluoromethylsulfonyl)imide	uncertainty	Mole fraction of dodecane	uncertainty
0	0	.007	1	.005	0	.005	.947	.007	.053	.005
.918	0	.007	.082	.005	.612	.005	.341	.007	.047	.005
1	0	.007	0	.005	.918	.005	.082	.007	0	.005
.125	0	.007	.875	.005	.145	.005	.8	.007	.055	.005
.255	.008	.007	.737	.005	.254	.005	.693	.007	.053	.005
.373	0	.007	.627	.005	.333	.005	.614	.007	.053	.005
.521	.006	.007	.473	.005	.417	.005	.527	.007	.056	.005
.609	.009	.007	.382	.005	.449	.005	.495	.007	.056	.005
.764	.006	.007	.23	.005	.517	.005	.423	.007	.06	.005
.83	0	.007	.17	.005	.567	.005	.374	.007	.059	.005
.867	0	.007	.133	.005	.582	.005	.362	.007	.056	.005

System: thiophene + hexadecane + 1-hexyl-3,5-dimethylpyridinium bis(trifluoromethylsulfonyl)imide; phases: Liquid mixture 1, Liquid mixture 2
Fixed: Temperature, K = 298.15
Fixed: Pressure, kPa = 101
Property: Mole fraction of 1-hexyl-3,5-dimethylpyridinium bis(trifluoromethylsulfonyl)imide (Liquid mixture 1); method: Chromatography
Property: Mole fraction of hexadecane (Liquid mixture 1); method: Chromatography
Property: Mole fraction of thiophene (Liquid mixture 2); method: Chromatography
Property: Mole fraction of 1-hexyl-3,5-dimethylpyridinium bis(trifluoromethylsulfonyl)imide (Liquid mixture 2); method: Chromatography
Property: Mole fraction of hexadecane (Liquid mixture 2); method: Chromatography
Mole fraction of thiophene	Mole fraction of 1-hexyl-3,5-dimethylpyridinium bis(trifluoromethylsulfonyl)imide	uncertainty	Mole fraction of hexadecane	uncertainty	Mole fraction of thiophene	uncertainty	Mole fraction of 1-hexyl-3,5-dimethylpyridinium bis(trifluoromethylsulfonyl)imide	uncertainty	Mole fraction of hexadecane	uncertainty
0	.968	.007	.032	.005	0	.005	0	.007	1	.005
.918	.082	.007	0	.005	1	.005	0	.007	0	.005
.167	.801	.007	.032	.005	.148	.005	0	.007	.852	.005
.309	.662	.007	.029	.005	.313	.005	0	.007	.687	.005
.393	.576	.007	.031	.005	.417	.005	0	.007	.583	.005
.448	.519	.007	.033	.005	.559	.005	0	.007	.441	.005
.487	.475	.007	.038	.005	.672	.005	0	.007	.328	.005
.522	.43	.007	.048	.005	.754	.005	.003	.007	.243	.005
.611	.34	.007	.049	.005	.894	.005	0	.007	.106	.005
.699	.269	.007	.032	.005	.969	.005	0	.007	.031	.005

System: hexane + pyridine + 1-hexyl-3,5-dimethylpyridinium bis(trifluoromethylsulfonyl)imide; phases: Liquid mixture 2, Liquid mixture 1
Fixed: Temperature, K = 298.15
Fixed: Pressure, kPa = 101
Property: Mole fraction of 1-hexyl-3,5-dimethylpyridinium bis(trifluoromethylsulfonyl)imide (Liquid mixture 2); method: Chromatography
Property: Mole fraction of hexane (Liquid mixture 2); method: Chromatography
Property: Mole fraction of pyridine (Liquid mixture 1); method: Chromatography
Property: Mole fraction of 1-hexyl-3,5-dimethylpyridinium bis(trifluoromethylsulfonyl)imide (Liquid mixture 1); method: Chromatography
Property: Mole fraction of hexane (Liquid mixture 1); method: Chromatography
Mole fraction of pyridine	Mole fraction of 1-hexyl-3,5-dimethylpyridinium bis(trifluoromethylsulfonyl)imide	uncertainty	Mole fraction of hexane	uncertainty	Mole fraction of pyridine	uncertainty	Mole fraction of 1-hexyl-3,5-dimethylpyridinium bis(trifluoromethylsulfonyl)imide	uncertainty	Mole fraction of hexane	uncertainty
0	.005	.007	.995	.005	0	.005	.791	.007	.209	.005
.009	0	.007	.991	.005	.171	.005	.641	.007	.188	.005
.03	.005	.007	.965	.005	.276	.005	.544	.007	.18	.005
.07	.004	.007	.926	.005	.424	.005	.412	.007	.164	.005
.1	0	.007	.9	.005	.575	.005	.271	.007	.154	.005
.216	0	.007	.784	.005	.653	.005	.166	.007	.181	.005
.326	0	.007	.674	.005	.678	.005	.101	.007	.221	.005
.969	0	.007	.031	.005	.699	.005	.269	.007	.032	.005
