Measured thermophysical data. Influence of water on the carbon dioxide absorption by 1-ethyl-3-methylimidazolium bis(trifluoromethylsulfonyl)amide
Source: Fluid Phase Equilib., 2010, 10.1016/j.fluid.2010.02.021
Compound 1: 1-ethyl-3-methylimidazolium bis[(trifluoromethyl)sulfonyl]imide, C8H11F6N3O4S2
Compound 2: water, H2O
Compound 3: carbon dioxide, CO2, purity 99.995%

System: water + 1-ethyl-3-methylimidazolium bis[(trifluoromethyl)sulfonyl]imide; phases: Gas, Liquid
Property: Vapor or sublimation pressure, kPa (Gas); method: Closed cell (Static) method
Temperature, K	Mole fraction of water	Vapor or sublimation pressure, kPa	uncertainty
292.75	0	0	.002
292.75	.242	1.816	.002
292.75	.272	2.081	.002
292.75	.293	2.178	.002
292.75	.548	2.281	.002
292.75	.643	2.28	.002
292.75	.741	2.286	.002
303.2	0	0	.002
303.2	.175	2.146	.002
303.2	.205	2.608	.002
303.2	.311	3.894	.002
303.2	.514	4.27	.002
303.2	.676	4.255	.002
303.2	.729	4.263	.002

System: water + 1-ethyl-3-methylimidazolium bis[(trifluoromethyl)sulfonyl]imide; phases: Gas, Liquid
Property: Vapor or sublimation pressure, kPa (Gas); method: Closed cell (Static) method
Temperature, K	Mole fraction of water	Vapor or sublimation pressure, kPa	uncertainty
303.46	0	0	.002
303.46	.1163	1.964	.002
303.46	.1283	2.111	.002
303.46	.1775	2.709	.002
303.46	.1989	2.443	.002
303.46	.2365	3.344	.002
303.46	.2396	2.938	.002
303.46	.2807	4.012	.002
303.46	.285	3.959	.002
323.35	0	0	.002
323.35	.1151	4.48	.002
323.35	.1278	4.696	.002
323.35	.176	6.383	.002
323.35	.2142	7.646	.002
323.35	.2358	7.298	.002
323.35	.2791	9.555	.002
323.35	.2842	8.416	.002

System: water + 1-ethyl-3-methylimidazolium bis[(trifluoromethyl)sulfonyl]imide; phases: Liquid
Fixed: Pressure, kPa = 101.3
Property: Viscosity, Pa*s (Liquid); method: Falling or rolling sphere viscometry
Temperature, K	Mole fraction of water	Viscosity, Pa*s	uncertainty
303.15	0	.0286	.000429
303.15	.1074	.0238	.000357
303.15	.2228	.0194	.000291
303.15	.3027	.0164	.000246
323.15	0	.0159	.0002385
323.15	.1074	.0136	.000204
323.15	.2228	.0114	.000171
323.15	.3027	.0099	.0001485

System: carbon dioxide + water + 1-ethyl-3-methylimidazolium bis[(trifluoromethyl)sulfonyl]imide; phases: Liquid, Gas
Fixed: Partial pressure, kPa of carbon dioxide = 100
Property: Mole fraction of carbon dioxide (Liquid); method: Calculated from pVT measurements
Temperature, K	Mole fraction of water	Mole fraction of carbon dioxide	uncertainty
303.4	.1128	.02181	.0002
303.4	.1259	.02307	.0002
303.4	.1731	.02059	.0002
303.4	.1949	.02111	.0002
303.4	.2341	.01881	.0002
303.4	.2749	.01784	.0002
303.4	.28	.01879	.0002
323.26	.1097	.016	.0002
323.26	.1244	.01642	.0002
323.26	.1691	.01609	.0002
323.26	.2067	.01404	.0002
323.26	.2297	.01509	.0002
323.26	.2306	.01447	.0002
323.26	.2705	.01326	.0002

System: carbon dioxide + water + 1-ethyl-3-methylimidazolium bis[(trifluoromethyl)sulfonyl]imide; phases: Gas, Liquid
Fixed: Partial pressure, kPa of carbon dioxide = 100
Property: Vapor or sublimation pressure, kPa (Gas); method: Closed cell (Static) method
Temperature, K	Mole fraction of water	Vapor or sublimation pressure, kPa	uncertainty
303.4	.1128	60.936	.002
303.4	.1259	47.784	.002
303.4	.1731	57.241	.002
303.4	.1949	66.271	.002
303.4	.2341	66.925	.002
303.4	.2749	67.374	.002
303.4	.28	65.815	.002
323.26	.1097	69.069	.002
323.26	.1244	55.884	.002
323.26	.1691	65.768	.002
323.26	.2067	78.27	.002
323.26	.2297	76.261	.002
323.26	.2306	74.177	.002
323.26	.2705	78.891	.002
