Measured thermophysical data. Isothermal vapor liquid equilibrium data for the ethene + 2,2,3- trifluoro-3-(trifluoromethyl)oxirane binary system between 258 and 308 K at pressures up to 4.5MPa
Source: Fluid Phase Equilib., 2015, 10.1016/j.fluid.2015.03.006
Compound 1: 2,2,3-trifluoro-3-(trifluoromethyl)oxirane, C3F6O
Compound 2: ethene, C2H4

System: ethene + 2,2,3-trifluoro-3-(trifluoromethyl)oxirane; phases: Liquid, Gas
Property: Vapor or sublimation pressure, kPa (Liquid); method: Closed cell (Static) method
Temperature, K	Mole fraction of ethene	Vapor or sublimation pressure, kPa	uncertainty
258.38	.111	589	7
258.38	.228	957	7
258.38	.389	1389	7
258.38	.557	1790	7
258.38	.651	1992	7
258.38	.738	2203	7
258.38	.79	2325	7
258.38	.889	2551	7
268.21	.139	871	7
268.21	.291	1440	7
268.21	.4	1803	7
268.21	.491	2064	7
268.21	.565	2281	7
268.21	.651	2474	7
268.21	.767	2826	7
268.21	.854	3091	7
268.21	.894	3225	7
278.07	.072	724	7
278.07	.155	1129	7
278.07	.247	1551	7
278.07	.33	1877	7
278.07	.423	2228	7
278.07	.521	2554	7
278.07	.651	3003	7
278.07	.784	3493	7
278.07	.89	4004	7
287.85	.091	1047	7
287.85	.18	1489	7
287.85	.288	1991	7
287.85	.4	2496	7
287.85	.521	3006	7
287.85	.623	3414	7
287.85	.701	3816	7
287.85	.821	4412	7
297.63	.077	1133	7
297.63	.142	1501	7
297.63	.247	2104	7
297.63	.333	2544	7
297.63	.422	2991	7
297.63	.521	3486	7
297.63	.623	4038	7
297.63	.72	4541	7
307.38	.095	1534	7
307.38	.166	1983	7
307.38	.255	2526	7
307.38	.338	3002	7
307.38	.48	3815	7
307.38	.538	4123	7
307.38	.617	4544	7

System: ethene + 2,2,3-trifluoro-3-(trifluoromethyl)oxirane; phases: Gas, Liquid
Property: Mole fraction of ethene (Gas); method: Chromatography
Temperature, K	Mole fraction of ethene	Mole fraction of ethene	uncertainty
258.38	.111	.679	.008
258.38	.228	.81	.006
258.38	.389	.874	.004
258.38	.557	.908	.003
258.38	.651	.925	.003
258.38	.738	.94	.002
258.38	.79	.949	.002
258.38	.889	.965	.001
268.21	.139	.702	.008
268.21	.291	.818	.006
268.21	.4	.858	.005
268.21	.491	.878	.004
268.21	.565	.894	.004
268.21	.651	.909	.003
268.21	.767	.929	.003
268.21	.854	.949	.002
268.21	.894	.961	.002
278.07	.072	.484	.01
278.07	.155	.658	.009
278.07	.247	.745	.007
278.07	.33	.793	.006
278.07	.423	.827	.005
278.07	.521	.856	.005
278.07	.651	.884	.004
278.07	.784	.919	.003
278.07	.89	.95	.002
287.85	.091	.469	.009
287.85	.18	.636	.009
287.85	.288	.725	.008
287.85	.4	.772	.007
287.85	.521	.817	.006
287.85	.623	.843	.005
287.85	.701	.865	.004
287.85	.821	.902	.003
297.63	.077	.378	.009
297.63	.142	.525	.01
297.63	.247	.641	.009
297.63	.333	.704	.008
297.63	.422	.745	.007
297.63	.521	.775	.007
297.63	.623	.813	.006
297.63	.72	.838	.005
307.38	.095	.387	.009
307.38	.166	.498	.01
307.38	.255	.596	.009
307.38	.338	.649	.009
307.38	.48	.71	.008
307.38	.538	.729	.008
307.38	.617	.743	.007
