Measured thermophysical data. Osmotic and activity coefficients of alpha, omega-amino acids in aqueous solutions at 298.15 K
Source: Fluid Phase Equilib., 2014, 10.1016/j.fluid.2014.02.004
Compound 1: 3-aminopropanoic acid, C3H7NO2, purity 98%
Compound 2: 4-aminobutanoic acid, C4H9NO2, purity 99%
Compound 3: 5-aminovaleric acid, C5H11NO2, purity 97.9%
Compound 4: 6-aminohexanoic acid, C6H13NO2, purity 99.2%
Compound 5: water, H2O

System: 3-aminopropanoic acid + water; phases: Liquid
Fixed: Pressure, kPa = 101
Fixed: Temperature, K = 298.15
Property: Osmotic coefficient (Liquid); method: Isopiestic method
Molality, mol/kg of 3-aminopropanoic acid	Osmotic coefficient	uncertainty
.1408	.9912	
.2482	.9892	
.335	.988	
.452	.9882	
.6148	.9901	
.6813	.9905	
.9542	.9934	
1.43	1.0056	

System: 4-aminobutanoic acid + water; phases: Liquid
Fixed: Pressure, kPa = 101
Fixed: Temperature, K = 298.15
Property: Osmotic coefficient (Liquid); method: Isopiestic method
Molality, mol/kg of 4-aminobutanoic acid	Osmotic coefficient	uncertainty
.1412	.9884	
.249	.986	
.3355	.9866	
.453	.986	
.6155	.9889	
.6809	.991	
.944	1.0041	
1.4023	1.0255	

System: 5-aminovaleric acid + water; phases: Liquid
Fixed: Pressure, kPa = 101
Fixed: Temperature, K = 298.15
Property: Osmotic coefficient (Liquid); method: Isopiestic method
Molality, mol/kg of 5-aminovaleric acid	Osmotic coefficient	uncertainty
.1414	.987	
.2493	.9848	
.3362	.9845	
.4531	.9858	
.618	.9849	
.6834	.9874	
.9461	1.0019	
1.3973	1.0291	

System: 6-aminohexanoic acid + water; phases: Liquid
Fixed: Pressure, kPa = 101
Fixed: Temperature, K = 298.15
Property: Osmotic coefficient (Liquid); method: Isopiestic method
Molality, mol/kg of 6-aminohexanoic acid	Osmotic coefficient	uncertainty
.1411	.9889	
.2493	.9848	
.3366	.9833	
.4538	.9843	
.617	.9865	
.6826	.9886	
.9388	1.0097	
1.3883	1.0358	
