Measured thermophysical data. Activity coefficients at infinite dilution of organic solvents and water in 1-butyl-3-methylimidazolium dicyanamide. A literature review of hexane/hex-1-ene separation
Source: Fluid Phase Equilib., 2016, 10.1016/j.fluid.2016.02.004
Compound 1: pentane, C5H12, purity 99%
Compound 2: hexane, C6H14, purity 99%
Compound 3: 3-methylpentane, C6H14, purity 99%
Compound 4: 2,2-dimethylbutane, C6H14, purity 99%
Compound 5: heptane, C7H16, purity 99.5%
Compound 6: octane, C8H18, purity 99%
Compound 7: 2,2,4-trimethylpentane, C8H18, purity 99%
Compound 8: nonane, C9H20, purity 99%
Compound 9: decane, C10H22, purity 99%
Compound 10: cyclopentane, C5H10, purity 99%
Compound 11: cyclohexane, C6H12, purity 99%
Compound 12: methylcyclohexane, C7H14, purity 99%
Compound 13: cycloheptane, C7H14, purity 98%
Compound 14: cyclooctane, C8H16, purity 99%
Compound 15: 1-pentene, C5H10, purity 98.5%
Compound 16: 1-hexene, C6H12, purity 99%
Compound 17: cyclohexene, C6H10, purity 99%
Compound 18: 1-heptene, C7H14, purity 99%
Compound 19: 1-octene, C8H16, purity 98%
Compound 20: 1-decene, C10H20, purity 97%
Compound 21: 1-pentyne, C5H8, purity 99%
Compound 22: 1-hexyne, C6H10, purity 97%
Compound 23: 1-heptyne, C7H12, purity 98%
Compound 24: 1-octyne, C8H14, purity 97%
Compound 25: benzene, C6H6, purity 99.8%
Compound 26: toluene, C7H8, purity 99.8%
Compound 27: ethylbenzene, C8H10, purity 99.8%
Compound 28: o-xylene, C8H10, purity 99.%
Compound 29: m-xylene, C8H10, purity 99.%
Compound 30: p-xylene, C8H10, purity 99.%
Compound 31: propylbenzene, C9H12, purity 98%
Compound 32: cumene, C9H12, purity 99%
Compound 33: styrene, C8H8, purity 99.9%
Compound 34: .alpha.-methylstyrene, C9H10, purity 99%
Compound 35: thiophene, C4H4S, purity 99%
Compound 36: pyridine, C5H5N, purity 99.8%
Compound 37: methanol, CH4O, purity 99.9%
Compound 38: ethanol, C2H6O, purity 99.8%
Compound 39: 1-propanol, C3H8O, purity 99.9%
Compound 40: 2-propanol, C3H8O, purity 99.9%
Compound 41: 1-butanol, C4H10O, purity 99.8%
Compound 42: 2-butanol, C4H10O, purity 99.5%
Compound 43: 2-methyl-1-propanol, C4H10O, purity 99.8%
Compound 44: 2-methyl-2-propanol, C4H10O, purity 99.7%
Compound 45: water, H2O
Compound 46: methyl acetate, C3H6O2, purity 99.8%
Compound 47: methyl propanoate, C4H8O2, purity 99%
Compound 48: methyl butanoate, C5H10O2, purity 99%
Compound 49: ethyl acetate, C4H8O2, purity 99.8%
Compound 50: oxolane, C4H8O, purity 99.9%
Compound 51: 1,4-dioxane, C4H8O2, purity 99.8%
Compound 52: 2-methoxy-2-methylpropane, C5H12O, purity 99.8%
Compound 53: 2-ethoxy-2-methylpropane, C6H14O, purity 99%
Compound 54: 2-methoxy-2-methylbutane, C6H14O, purity 97%
Compound 55: ethoxyethane, C4H10O, purity 99.9%
Compound 56: 1-propoxypropane, C6H14O, purity 99%
Compound 57: diisopropyl ether, C6H14O, purity 99%
Compound 58: 1-butoxybutane, C8H18O, purity 99.3%
Compound 59: propan-2-one, C3H6O, purity 99.9%
Compound 60: pentan-2-one, C5H10O, purity 99.%
Compound 61: pentan-3-one, C5H10O, purity 99.%
Compound 62: butanal, C4H8O, purity 99.%
Compound 63: acetonitrile, C2H3N, purity 99.9%
Compound 64: 1-nitropropane, C3H7NO2, purity 98.5%
Compound 65: 1-butyl-3-methylimidazolium dicyanamide, C10H15N5, purity 98%

System: pentane + 1-butyl-3-methylimidazolium dicyanamide; phases: Liquid, Gas
Fixed: Mole fraction of pentane = 0
Property: Activity coefficient of pentane (Liquid); method: Other
Temperature, K	Activity coefficient of pentane	uncertainty
318.15	41.7	
328.15	40.1	
338.15	38.6	
348.15	37.3	
358.15	36.1	
368.15	34.9	

System: hexane + 1-butyl-3-methylimidazolium dicyanamide; phases: Liquid, Gas
Fixed: Mole fraction of hexane = 0
Property: Activity coefficient of hexane (Liquid); method: Other
Temperature, K	Activity coefficient of hexane	uncertainty
318.15	61.6	
328.15	59.3	
338.15	57.1	
348.15	55.2	
358.15	53.4	
368.15	51.7	

System: 3-methylpentane + 1-butyl-3-methylimidazolium dicyanamide; phases: Liquid, Gas
Fixed: Mole fraction of 3-methylpentane = 0
Property: Activity coefficient of 3-methylpentane (Liquid); method: Other
Temperature, K	Activity coefficient of 3-methylpentane	uncertainty
318.15	53.7	
328.15	51.7	
338.15	50	
348.15	48.4	
358.15	47.1	
368.15	45.6	

System: 2,2-dimethylbutane + 1-butyl-3-methylimidazolium dicyanamide; phases: Liquid, Gas
Fixed: Mole fraction of 2,2-dimethylbutane = 0
Property: Activity coefficient of 2,2-dimethylbutane (Liquid); method: Other
Temperature, K	Activity coefficient of 2,2-dimethylbutane	uncertainty
318.15	53.6	
328.15	51.7	
338.15	50.1	
348.15	48.7	
358.15	47.4	
368.15	46	

System: heptane + 1-butyl-3-methylimidazolium dicyanamide; phases: Liquid, Gas
Fixed: Mole fraction of heptane = 0
Property: Activity coefficient of heptane (Liquid); method: Other
Temperature, K	Activity coefficient of heptane	uncertainty
318.15	91	
328.15	87.2	
338.15	83.9	
348.15	80.6	
358.15	77.8	
368.15	75.3	

System: octane + 1-butyl-3-methylimidazolium dicyanamide; phases: Liquid, Gas
Fixed: Mole fraction of octane = 0
Property: Activity coefficient of octane (Liquid); method: Other
Temperature, K	Activity coefficient of octane	uncertainty
318.15	137	
328.15	129	
338.15	123	
348.15	116	
358.15	111	
368.15	106	

System: 2,2,4-trimethylpentane + 1-butyl-3-methylimidazolium dicyanamide; phases: Liquid, Gas
Fixed: Mole fraction of 2,2,4-trimethylpentane = 0
Property: Activity coefficient of 2,2,4-trimethylpentane (Liquid); method: Other
Temperature, K	Activity coefficient of 2,2,4-trimethylpentane	uncertainty
318.15	111	
328.15	105	
338.15	101	
348.15	96.5	
358.15	92.8	
368.15	89.2	

System: nonane + 1-butyl-3-methylimidazolium dicyanamide; phases: Liquid, Gas
Fixed: Mole fraction of nonane = 0
Property: Activity coefficient of nonane (Liquid); method: Other
Temperature, K	Activity coefficient of nonane	uncertainty
318.15	207	
328.15	193	
338.15	181	
348.15	171	
358.15	162	
368.15	153	

System: decane + 1-butyl-3-methylimidazolium dicyanamide; phases: Liquid, Gas
Fixed: Mole fraction of decane = 0
Property: Activity coefficient of decane (Liquid); method: Other
Temperature, K	Activity coefficient of decane	uncertainty
318.15	314	
328.15	285	
338.15	260	
348.15	239	
358.15	221	
368.15	205	

System: cyclopentane + 1-butyl-3-methylimidazolium dicyanamide; phases: Liquid, Gas
Fixed: Mole fraction of cyclopentane = 0
Property: Activity coefficient of cyclopentane (Liquid); method: Other
Temperature, K	Activity coefficient of cyclopentane	uncertainty
318.15	17.4	
328.15	16.9	
338.15	16.3	
348.15	15.9	
358.15	15.5	
368.15	15.1	

System: cyclohexane + 1-butyl-3-methylimidazolium dicyanamide; phases: Liquid, Gas
Fixed: Mole fraction of cyclohexane = 0
Property: Activity coefficient of cyclohexane (Liquid); method: Other
Temperature, K	Activity coefficient of cyclohexane	uncertainty
318.15	25.8	
328.15	25	
338.15	24.3	
348.15	23.7	
358.15	23.1	
368.15	22.6	

System: methylcyclohexane + 1-butyl-3-methylimidazolium dicyanamide; phases: Liquid, Gas
Fixed: Mole fraction of methylcyclohexane = 0
Property: Activity coefficient of methylcyclohexane (Liquid); method: Other
Temperature, K	Activity coefficient of methylcyclohexane	uncertainty
318.15	40.2	
328.15	38.3	
338.15	36.5	
348.15	35	
358.15	33.6	
368.15	32.4	

System: cycloheptane + 1-butyl-3-methylimidazolium dicyanamide; phases: Liquid, Gas
Fixed: Mole fraction of cycloheptane = 0
Property: Activity coefficient of cycloheptane (Liquid); method: Other
Temperature, K	Activity coefficient of cycloheptane	uncertainty
318.15	32.6	
328.15	31.2	
338.15	30.1	
348.15	29.1	
358.15	28.1	
368.15	27.3	

System: cyclooctane + 1-butyl-3-methylimidazolium dicyanamide; phases: Liquid, Gas
Fixed: Mole fraction of cyclooctane = 0
Property: Activity coefficient of cyclooctane (Liquid); method: Other
Temperature, K	Activity coefficient of cyclooctane	uncertainty
318.15	42.4	
328.15	40.4	
338.15	38.6	
348.15	37.1	
358.15	35.8	
368.15	34.5	

System: 1-pentene + 1-butyl-3-methylimidazolium dicyanamide; phases: Liquid, Gas
Fixed: Mole fraction of 1-pentene = 0
Property: Activity coefficient of 1-pentene (Liquid); method: Other
Temperature, K	Activity coefficient of 1-pentene	uncertainty
318.15	17.3	
328.15	17.3	
338.15	17.3	
348.15	17.3	
358.15	17.3	
368.15	17.3	

System: 1-hexene + 1-butyl-3-methylimidazolium dicyanamide; phases: Liquid, Gas
Fixed: Mole fraction of 1-hexene = 0
Property: Activity coefficient of 1-hexene (Liquid); method: Other
Temperature, K	Activity coefficient of 1-hexene	uncertainty
318.15	26.4	
328.15	25.9	
338.15	25.5	
348.15	25.1	
358.15	24.7	
368.15	24.4	

System: cyclohexene + 1-butyl-3-methylimidazolium dicyanamide; phases: Liquid, Gas
Fixed: Mole fraction of cyclohexene = 0
Property: Activity coefficient of cyclohexene (Liquid); method: Other
Temperature, K	Activity coefficient of cyclohexene	uncertainty
318.15	11.4	
328.15	11.4	
338.15	11.3	
348.15	11.3	
358.15	11.3	
368.15	11.3	

System: 1-heptene + 1-butyl-3-methylimidazolium dicyanamide; phases: Liquid, Gas
Fixed: Mole fraction of 1-heptene = 0
Property: Activity coefficient of 1-heptene (Liquid); method: Other
Temperature, K	Activity coefficient of 1-heptene	uncertainty
318.15	39	
328.15	38.5	
338.15	38.1	
348.15	37.7	
358.15	37.3	
368.15	37	

System: 1-octene + 1-butyl-3-methylimidazolium dicyanamide; phases: Liquid, Gas
Fixed: Mole fraction of 1-octene = 0
Property: Activity coefficient of 1-octene (Liquid); method: Other
Temperature, K	Activity coefficient of 1-octene	uncertainty
318.15	60.1	
328.15	58.9	
338.15	58	
348.15	57	
358.15	56.2	
368.15	55.5	

System: 1-decene + 1-butyl-3-methylimidazolium dicyanamide; phases: Liquid, Gas
Fixed: Mole fraction of 1-decene = 0
Property: Activity coefficient of 1-decene (Liquid); method: Other
Temperature, K	Activity coefficient of 1-decene	uncertainty
318.15	134	
328.15	128	
338.15	123	
348.15	119	
358.15	115	
368.15	111	

System: 1-pentyne + 1-butyl-3-methylimidazolium dicyanamide; phases: Liquid, Gas
Fixed: Mole fraction of 1-pentyne = 0
Property: Activity coefficient of 1-pentyne (Liquid); method: Other
Temperature, K	Activity coefficient of 1-pentyne	uncertainty
318.15	3.7	
328.15	3.94	
338.15	4.16	
348.15	4.38	
358.15	4.6	
368.15	4.84	

System: 1-hexyne + 1-butyl-3-methylimidazolium dicyanamide; phases: Liquid, Gas
Fixed: Mole fraction of 1-hexyne = 0
Property: Activity coefficient of 1-hexyne (Liquid); method: Other
Temperature, K	Activity coefficient of 1-hexyne	uncertainty
318.15	5.43	
328.15	5.76	
338.15	6.12	
348.15	6.49	
358.15	6.85	
368.15	7.23	

System: 1-heptyne + 1-butyl-3-methylimidazolium dicyanamide; phases: Liquid, Gas
Fixed: Mole fraction of 1-heptyne = 0
Property: Activity coefficient of 1-heptyne (Liquid); method: Other
Temperature, K	Activity coefficient of 1-heptyne	uncertainty
318.15	8.24	
328.15	8.61	
338.15	9.02	
348.15	9.42	
358.15	9.77	
368.15	10.2	

System: 1-octyne + 1-butyl-3-methylimidazolium dicyanamide; phases: Liquid, Gas
Fixed: Mole fraction of 1-octyne = 0
Property: Activity coefficient of 1-octyne (Liquid); method: Other
Temperature, K	Activity coefficient of 1-octyne	uncertainty
318.15	12.5	
328.15	13	
338.15	13.4	
348.15	13.9	
358.15	14.4	
368.15	14.8	

System: benzene + 1-butyl-3-methylimidazolium dicyanamide; phases: Liquid, Gas
Fixed: Mole fraction of benzene = 0
Property: Activity coefficient of benzene (Liquid); method: Other
Temperature, K	Activity coefficient of benzene	uncertainty
318.15	1.87	
328.15	1.95	
338.15	2.03	
348.15	2.11	
358.15	2.19	
368.15	2.28	

System: toluene + 1-butyl-3-methylimidazolium dicyanamide; phases: Liquid, Gas
Fixed: Mole fraction of toluene = 0
Property: Activity coefficient of toluene (Liquid); method: Other
Temperature, K	Activity coefficient of toluene	uncertainty
318.15	2.89	
328.15	3.01	
338.15	3.15	
348.15	3.27	
358.15	3.4	
368.15	3.54	

System: ethylbenzene + 1-butyl-3-methylimidazolium dicyanamide; phases: Liquid, Gas
Fixed: Mole fraction of ethylbenzene = 0
Property: Activity coefficient of ethylbenzene (Liquid); method: Other
Temperature, K	Activity coefficient of ethylbenzene	uncertainty
318.15	4.78	
328.15	4.89	
338.15	5.07	
348.15	5.19	
358.15	5.33	
368.15	5.55	

System: o-xylene + 1-butyl-3-methylimidazolium dicyanamide; phases: Liquid, Gas
Fixed: Mole fraction of o-xylene = 0
Property: Activity coefficient of o-xylene (Liquid); method: Other
Temperature, K	Activity coefficient of o-xylene	uncertainty
318.15	3.82	
328.15	3.97	
338.15	4.12	
348.15	4.27	
358.15	4.42	
368.15	4.57	

System: m-xylene + 1-butyl-3-methylimidazolium dicyanamide; phases: Liquid, Gas
Fixed: Mole fraction of m-xylene = 0
Property: Activity coefficient of m-xylene (Liquid); method: Other
Temperature, K	Activity coefficient of m-xylene	uncertainty
318.15	4.65	
328.15	4.82	
338.15	5.03	
348.15	5.19	
358.15	5.38	
368.15	5.56	

System: p-xylene + 1-butyl-3-methylimidazolium dicyanamide; phases: Liquid, Gas
Fixed: Mole fraction of p-xylene = 0
Property: Activity coefficient of p-xylene (Liquid); method: Other
Temperature, K	Activity coefficient of p-xylene	uncertainty
318.15	4.44	
328.15	4.62	
338.15	4.82	
348.15	5	
358.15	5.18	
368.15	5.37	

System: propylbenzene + 1-butyl-3-methylimidazolium dicyanamide; phases: Liquid, Gas
Fixed: Mole fraction of propylbenzene = 0
Property: Activity coefficient of propylbenzene (Liquid); method: Other
Temperature, K	Activity coefficient of propylbenzene	uncertainty
318.15	7.36	
328.15	7.57	
338.15	7.78	
348.15	7.98	
358.15	8.15	
368.15	8.35	

System: cumene + 1-butyl-3-methylimidazolium dicyanamide; phases: Liquid, Gas
Fixed: Mole fraction of cumene = 0
Property: Activity coefficient of cumene (Liquid); method: Other
Temperature, K	Activity coefficient of cumene	uncertainty
318.15	7.3	
328.15	7.52	
338.15	7.72	
348.15	7.93	
358.15	8.11	
368.15	8.3	

System: styrene + 1-butyl-3-methylimidazolium dicyanamide; phases: Liquid, Gas
Fixed: Mole fraction of styrene = 0
Property: Activity coefficient of styrene (Liquid); method: Other
Temperature, K	Activity coefficient of styrene	uncertainty
318.15	2.15	
328.15	2.28	
338.15	2.41	
348.15	2.53	
358.15	2.65	
368.15	2.78	

System: .alpha.-methylstyrene + 1-butyl-3-methylimidazolium dicyanamide; phases: Liquid, Gas
Fixed: Mole fraction of .alpha.-methylstyrene = 0
Property: Activity coefficient of .alpha.-methylstyrene (Liquid); method: Other
Temperature, K	Activity coefficient of .alpha.-methylstyrene	uncertainty
318.15	3.3	
328.15	3.53	
338.15	3.79	
348.15	4.02	
358.15	4.26	
368.15	4.51	

System: thiophene + 1-butyl-3-methylimidazolium dicyanamide; phases: Liquid, Gas
Fixed: Mole fraction of thiophene = 0
Property: Activity coefficient of thiophene (Liquid); method: Other
Temperature, K	Activity coefficient of thiophene	uncertainty
318.15	1.14	
328.15	1.22	
338.15	1.29	
348.15	1.36	
358.15	1.43	
368.15	1.5	

System: pyridine + 1-butyl-3-methylimidazolium dicyanamide; phases: Liquid, Gas
Fixed: Mole fraction of pyridine = 0
Property: Activity coefficient of pyridine (Liquid); method: Other
Temperature, K	Activity coefficient of pyridine	uncertainty
318.15	.845	
328.15	.89	
338.15	.94	
348.15	.985	
358.15	1.03	
368.15	1.08	

System: methanol + 1-butyl-3-methylimidazolium dicyanamide; phases: Liquid, Gas
Fixed: Mole fraction of methanol = 0
Property: Activity coefficient of methanol (Liquid); method: Other
Temperature, K	Activity coefficient of methanol	uncertainty
318.15	.399	
328.15	.408	
338.15	.42	
348.15	.431	
358.15	.442	
368.15	.46	

System: ethanol + 1-butyl-3-methylimidazolium dicyanamide; phases: Liquid, Gas
Fixed: Mole fraction of ethanol = 0
Property: Activity coefficient of ethanol (Liquid); method: Other
Temperature, K	Activity coefficient of ethanol	uncertainty
318.15	.65	
328.15	.658	
338.15	.669	
348.15	.677	
358.15	.686	
368.15	.694	

System: 1-propanol + 1-butyl-3-methylimidazolium dicyanamide; phases: Liquid, Gas
Fixed: Mole fraction of 1-propanol = 0
Property: Activity coefficient of 1-propanol (Liquid); method: Other
Temperature, K	Activity coefficient of 1-propanol	uncertainty
318.15	.826	
328.15	.835	
338.15	.844	
348.15	.853	
358.15	.862	
368.15	.871	

System: 2-propanol + 1-butyl-3-methylimidazolium dicyanamide; phases: Liquid, Gas
Fixed: Mole fraction of 2-propanol = 0
Property: Activity coefficient of 2-propanol (Liquid); method: Other
Temperature, K	Activity coefficient of 2-propanol	uncertainty
318.15	.921	
328.15	.93	
338.15	.94	
348.15	.948	
358.15	.956	
368.15	.963	

System: 1-butanol + 1-butyl-3-methylimidazolium dicyanamide; phases: Liquid, Gas
Fixed: Mole fraction of 1-butanol = 0
Property: Activity coefficient of 1-butanol (Liquid); method: Other
Temperature, K	Activity coefficient of 1-butanol	uncertainty
318.15	1.1	
328.15	1.11	
338.15	1.12	
348.15	1.13	
358.15	1.14	
368.15	1.15	

System: 2-butanol + 1-butyl-3-methylimidazolium dicyanamide; phases: Liquid, Gas
Fixed: Mole fraction of 2-butanol = 0
Property: Activity coefficient of 2-butanol (Liquid); method: Other
Temperature, K	Activity coefficient of 2-butanol	uncertainty
318.15	1.13	
328.15	1.14	
338.15	1.16	
348.15	1.17	
358.15	1.18	
368.15	1.19	

System: 2-methyl-1-propanol + 1-butyl-3-methylimidazolium dicyanamide; phases: Liquid, Gas
Fixed: Mole fraction of 2-methyl-1-propanol = 0
Property: Activity coefficient of 2-methyl-1-propanol (Liquid); method: Other
Temperature, K	Activity coefficient of 2-methyl-1-propanol	uncertainty
318.15	1.08	
328.15	1.08	
338.15	1.09	
348.15	1.09	
358.15	1.09	
368.15	1.09	

System: 2-methyl-2-propanol + 1-butyl-3-methylimidazolium dicyanamide; phases: Liquid, Gas
Fixed: Mole fraction of 2-methyl-2-propanol = 0
Property: Activity coefficient of 2-methyl-2-propanol (Liquid); method: Other
Temperature, K	Activity coefficient of 2-methyl-2-propanol	uncertainty
318.15	1.11	
328.15	1.14	
338.15	1.16	
348.15	1.19	
358.15	1.21	
368.15	1.24	

System: water + 1-butyl-3-methylimidazolium dicyanamide; phases: Liquid, Gas
Fixed: Mole fraction of water = 0
Property: Activity coefficient of water (Liquid); method: Other
Temperature, K	Activity coefficient of water	uncertainty
318.15	.31	
328.15	.323	
338.15	.336	
348.15	.349	
358.15	.363	
368.15	.376	

System: methyl acetate + 1-butyl-3-methylimidazolium dicyanamide; phases: Liquid, Gas
Fixed: Mole fraction of methyl acetate = 0
Property: Activity coefficient of methyl acetate (Liquid); method: Other
Temperature, K	Activity coefficient of methyl acetate	uncertainty
318.15	1.61	
328.15	1.71	
338.15	1.81	
348.15	1.9	
358.15	1.99	
368.15	2.09	

System: methyl propanoate + 1-butyl-3-methylimidazolium dicyanamide; phases: Liquid, Gas
Fixed: Mole fraction of methyl propanoate = 0
Property: Activity coefficient of methyl propanoate (Liquid); method: Other
Temperature, K	Activity coefficient of methyl propanoate	uncertainty
318.15	2.36	
328.15	2.47	
338.15	2.59	
348.15	2.7	
358.15	2.81	
368.15	2.92	

System: methyl butanoate + 1-butyl-3-methylimidazolium dicyanamide; phases: Liquid, Gas
Fixed: Mole fraction of methyl butanoate = 0
Property: Activity coefficient of methyl butanoate (Liquid); method: Other
Temperature, K	Activity coefficient of methyl butanoate	uncertainty
318.15	3.46	
328.15	3.61	
338.15	3.75	
348.15	3.9	
358.15	4.03	
368.15	4.17	

System: ethyl acetate + 1-butyl-3-methylimidazolium dicyanamide; phases: Liquid, Gas
Fixed: Mole fraction of ethyl acetate = 0
Property: Activity coefficient of ethyl acetate (Liquid); method: Other
Temperature, K	Activity coefficient of ethyl acetate	uncertainty
318.15	2.57	
328.15	2.68	
338.15	2.79	
348.15	2.91	
358.15	3	
368.15	3.11	

System: oxolane + 1-butyl-3-methylimidazolium dicyanamide; phases: Liquid, Gas
Fixed: Mole fraction of oxolane = 0
Property: Activity coefficient of oxolane (Liquid); method: Other
Temperature, K	Activity coefficient of oxolane	uncertainty
318.15	1.55	
328.15	1.63	
338.15	1.71	
348.15	1.78	
358.15	1.85	
368.15	1.93	

System: 1,4-dioxane + 1-butyl-3-methylimidazolium dicyanamide; phases: Liquid, Gas
Fixed: Mole fraction of 1,4-dioxane = 0
Property: Activity coefficient of 1,4-dioxane (Liquid); method: Other
Temperature, K	Activity coefficient of 1,4-dioxane	uncertainty
318.15	1.06	
328.15	1.13	
338.15	1.21	
348.15	1.28	
358.15	1.36	
368.15	1.43	

System: 2-methoxy-2-methylpropane + 1-butyl-3-methylimidazolium dicyanamide; phases: Liquid, Gas
Fixed: Mole fraction of 2-methoxy-2-methylpropane = 0
Property: Activity coefficient of 2-methoxy-2-methylpropane (Liquid); method: Other
Temperature, K	Activity coefficient of 2-methoxy-2-methylpropane	uncertainty
318.15	7.13	
328.15	7.47	
338.15	7.8	
348.15	8.14	
358.15	8.46	
368.15	8.8	

System: 2-ethoxy-2-methylpropane + 1-butyl-3-methylimidazolium dicyanamide; phases: Liquid, Gas
Fixed: Mole fraction of 2-ethoxy-2-methylpropane = 0
Property: Activity coefficient of 2-ethoxy-2-methylpropane (Liquid); method: Other
Temperature, K	Activity coefficient of 2-ethoxy-2-methylpropane	uncertainty
318.15	18.1	
328.15	18.4	
338.15	18.7	
348.15	19.1	
358.15	19.3	
368.15	19.7	

System: 2-methoxy-2-methylbutane + 1-butyl-3-methylimidazolium dicyanamide; phases: Liquid, Gas
Fixed: Mole fraction of 2-methoxy-2-methylbutane = 0
Property: Activity coefficient of 2-methoxy-2-methylbutane (Liquid); method: Other
Temperature, K	Activity coefficient of 2-methoxy-2-methylbutane	uncertainty
318.15	10.7	
328.15	11.1	
338.15	11.5	
348.15	11.8	
358.15	12.2	
368.15	12.5	

System: ethoxyethane + 1-butyl-3-methylimidazolium dicyanamide; phases: Liquid, Gas
Fixed: Mole fraction of ethoxyethane = 0
Property: Activity coefficient of ethoxyethane (Liquid); method: Other
Temperature, K	Activity coefficient of ethoxyethane	uncertainty
318.15	6.88	
328.15	7.11	
338.15	7.32	
348.15	7.53	
358.15	7.74	
368.15	7.95	

System: 1-propoxypropane + 1-butyl-3-methylimidazolium dicyanamide; phases: Liquid, Gas
Fixed: Mole fraction of 1-propoxypropane = 0
Property: Activity coefficient of 1-propoxypropane (Liquid); method: Other
Temperature, K	Activity coefficient of 1-propoxypropane	uncertainty
318.15	20.4	
328.15	20.5	
338.15	20.5	
348.15	20.5	
358.15	20.5	
368.15	20.6	

System: diisopropyl ether + 1-butyl-3-methylimidazolium dicyanamide; phases: Liquid, Gas
Fixed: Mole fraction of diisopropyl ether = 0
Property: Activity coefficient of diisopropyl ether (Liquid); method: Other
Temperature, K	Activity coefficient of diisopropyl ether	uncertainty
318.15	20.6	
328.15	20.9	
338.15	21.2	
348.15	21.5	
358.15	21.8	
368.15	22	

System: 1-butoxybutane + 1-butyl-3-methylimidazolium dicyanamide; phases: Liquid, Gas
Fixed: Mole fraction of 1-butoxybutane = 0
Property: Activity coefficient of 1-butoxybutane (Liquid); method: Other
Temperature, K	Activity coefficient of 1-butoxybutane	uncertainty
318.15	47.4	
328.15	46.4	
338.15	45.5	
348.15	44.6	
358.15	43.9	
368.15	43.1	

System: propan-2-one + 1-butyl-3-methylimidazolium dicyanamide; phases: Liquid, Gas
Fixed: Mole fraction of propan-2-one = 0
Property: Activity coefficient of propan-2-one (Liquid); method: Other
Temperature, K	Activity coefficient of propan-2-one	uncertainty
318.15	1	
328.15	1.05	
338.15	1.11	
348.15	1.16	
358.15	1.22	
368.15	1.27	

System: pentan-2-one + 1-butyl-3-methylimidazolium dicyanamide; phases: Liquid, Gas
Fixed: Mole fraction of pentan-2-one = 0
Property: Activity coefficient of pentan-2-one (Liquid); method: Other
Temperature, K	Activity coefficient of pentan-2-one	uncertainty
318.15	2	
328.15	2.11	
338.15	2.22	
348.15	2.32	
358.15	2.43	
368.15	2.53	

System: pentan-3-one + 1-butyl-3-methylimidazolium dicyanamide; phases: Liquid, Gas
Fixed: Mole fraction of pentan-3-one = 0
Property: Activity coefficient of pentan-3-one (Liquid); method: Other
Temperature, K	Activity coefficient of pentan-3-one	uncertainty
318.15	2.04	
328.15	2.16	
338.15	2.27	
348.15	2.38	
358.15	2.49	
368.15	2.6	

System: butanal + 1-butyl-3-methylimidazolium dicyanamide; phases: Liquid, Gas
Fixed: Mole fraction of butanal = 0
Property: Activity coefficient of butanal (Liquid); method: Other
Temperature, K	Activity coefficient of butanal	uncertainty
318.15	1.61	
328.15	1.67	
338.15	1.74	
348.15	1.8	
358.15	1.87	
368.15	1.93	

System: acetonitrile + 1-butyl-3-methylimidazolium dicyanamide; phases: Liquid, Gas
Fixed: Mole fraction of acetonitrile = 0
Property: Activity coefficient of acetonitrile (Liquid); method: Other
Temperature, K	Activity coefficient of acetonitrile	uncertainty
318.15	.781	
328.15	.813	
338.15	.844	
348.15	.876	
358.15	.904	
368.15	.934	

System: 1-nitropropane + 1-butyl-3-methylimidazolium dicyanamide; phases: Liquid, Gas
Fixed: Mole fraction of 1-nitropropane = 0
Property: Activity coefficient of 1-nitropropane (Liquid); method: Other
Temperature, K	Activity coefficient of 1-nitropropane	uncertainty
318.15	1.26	
328.15	1.31	
338.15	1.36	
348.15	1.41	
358.15	1.45	
368.15	1.5	
