Measured thermophysical data. Isothermal vapor-liquid equilibrium data for the binary mixture ethyl fluoride (HFC-161) + 1,1,1,2,3,3,3-heptafluoropropane (HFC-227ea) over a temperature range from 253.15 K to 313.15 K
Source: Fluid Phase Equilib., 2010, 10.1016/j.fluid.2010.06.006
Compound 1: fluoroethane, C2H5F, purity 99.74%
Compound 2: 2-hydroperfluoropropane, C3HF7, purity 99.98%

System: fluoroethane + 2-hydroperfluoropropane; phases: Gas, Liquid
Property: Mole fraction of fluoroethane (Gas); method: Chromatography
Mole fraction of fluoroethane	Temperature, K	Mole fraction of fluoroethane	uncertainty
.7222	253.15	.9036	.002
.8413	253.15	.9487	.002
.0814	263.15	.0858	.002
.1785	263.15	.215	.002
.2478	263.15	.3333	.002
.3376	263.15	.4923	.002
.4446	263.15	.6338	.002
.5207	263.15	.7239	.002
.5987	263.15	.7907	.002
.7599	263.15	.8938	.002
.8501	263.15	.9334	.002
.1223	273.15	.1472	.002
.1601	273.15	.1975	.002
.1974	273.15	.2505	.002
.2574	273.15	.3411	.002
.3002	273.15	.4195	.002
.4246	273.15	.5752	.002
.4834	273.15	.6456	.002
.6339	273.15	.7831	.002
.7805	273.15	.8905	.002
.8614	273.15	.932	.002
.0445	283.15	.0487	.002
.1497	283.15	.1824	.002
.2418	283.15	.3252	.002
.319	283.15	.4432	.002
.4263	283.15	.5836	.002
.5055	283.15	.6704	.002
.5878	283.15	.7514	.002
.7049	283.15	.8369	.002
.8624	283.15	.9362	.002
.0984	293.15	.1163	.002
.1415	293.15	.1682	.002
.2677	293.15	.3376	.002
.3413	293.15	.443	.002
.4462	293.15	.5787	.002
.5247	293.15	.6672	.002
.6008	293.15	.7532	.002
.7238	293.15	.8469	.002
.8761	293.15	.937	.002
.0815	293.15	.0979	.002
.12	303.15	.1592	.002
.2341	303.15	.3211	.002
.3049	303.15	.4122	.002
.4515	303.15	.5937	.002
.5338	303.15	.682	.002
.6109	303.15	.7424	.002
.7122	303.15	.8223	.002
.864	303.15	.9237	.002
.0867	313.15	.1213	.002
.1197	313.15	.1582	.002
.2385	313.15	.3137	.002
.2881	313.15	.3815	.002
.4056	313.15	.5451	.002
.4611	313.15	.6103	.002
.5462	313.15	.6931	.002
.6489	313.15	.786	.002
.7618	313.15	.8737	.002

System: fluoroethane + 2-hydroperfluoropropane; phases: Liquid, Gas
Property: Vapor or sublimation pressure, kPa (Liquid); method: Closed cell (Static) method
Mole fraction of fluoroethane	Temperature, K	Vapor or sublimation pressure, kPa	uncertainty
.7222	253.15	166.081	1.6
.8413	253.15	192.6	1.6
.0814	263.15	132.849	1.6
.1785	263.15	137.645	1.6
.2478	263.15	145.614	1.6
.3376	263.15	160.452	1.6
.4446	263.15	180.385	1.6
.5207	263.15	199.095	1.6
.5987	263.15	216.206	1.6
.7599	263.15	256.19	1.6
.8501	263.15	271.22	1.6
.1223	273.15	199.68	1.6
.1601	273.15	207.489	1.6
.1974	273.15	208.333	1.6
.2574	273.15	216.887	1.6
.3002	273.15	227.996	1.6
.4246	273.15	252.45	1.6
.4834	273.15	268.05	1.6
.6339	273.15	314.393	1.6
.7805	273.15	361.403	1.6
.8614	273.15	392.701	1.6
.0445	283.15	278.893	1.6
.1497	283.15	290.562	1.6
.2418	283.15	308.45	1.6
.319	283.15	329.325	1.6
.4263	283.15	363.8	1.6
.5055	283.15	404.15	1.6
.5878	283.15	435.2	1.6
.7049	283.15	478.55	1.6
.8624	283.15	537.43	1.6
.0984	293.15	396.86	1.6
.1415	293.15	406.924	1.6
.2677	293.15	431.647	1.6
.3413	293.15	458.75	1.6
.4462	293.15	503.23	1.6
.5247	293.15	546.595	1.6
.6008	293.15	573.5	1.6
.7238	293.15	647.7	1.6
.8761	293.15	724.306	1.6
.0815	303.15	535.46	1.6
.12	303.15	544.823	1.6
.2341	303.15	576.889	1.6
.3049	303.15	612.417	1.6
.4515	303.15	667.429	1.6
.5338	303.15	714.531	1.6
.6109	303.15	781.2	1.6
.7122	303.15	842.1	1.6
.864	303.15	944.736	1.6
.0867	313.15	708.089	1.6
.1197	313.15	718.002	1.6
.2385	313.15	751.35	1.6
.2881	313.15	776.674	1.6
.4056	313.15	852.8	1.6
.4611	313.15	888.447	1.6
.5462	313.15	975.585	1.6
.6489	313.15	1045.53	1.6
.7618	313.15	1196.05	1.6
