Measured thermophysical data. The effect of n vs. iso Isomerization on the thermophysical properties of aromatic and non-aromatic ionic liquids
Source: Fluid Phase Equilib., 2016, 10.1016/j.fluid.2016.04.009
Compound 1: 1-isobutyl-3-methylimidazolium bis[(trifluoromethyl)sulfonyl]amide, C10H15F6N3O4S2, purity 98%
Compound 2: 1-butyl-3-methylpyridinium 1,1,1-trifluoro-N-[(trifluoromethyl)sulfonyl]methanesulfonamide, C12H16F6N2O4S2, purity 99%
Compound 3: 1-isobutyl-3-methylpyridinium bis((trifluoromethyl)sulfonyl)imide, C12H16F6N2O4S2, purity 98%
Compound 4: 1-butyl-1-methylpyrrolidinium bis(trifluoromethylsulfonyl)imide, C11H20F6N2O4S2, purity 99%
Compound 5: 1-isobutyl-1-methylpyrrolidinium bis((trifluoromethyl)sulfonyl)imide, C11H20F6N2O4S2, purity 98%
Compound 6: 1-butyl-1-methylpiperidinium bis(trifluoromethanesulfonyl)imide, C12H22F6N2O4S2, purity 99%
Compound 7: 1-isobutyl-1-methylpiperidinium bis((trifluoromethyl)sulfonyl)imide, C12H22F6N2O4S2, purity 98%
Compound 8: 1-hexyl-3-methylimidazolium bis(trifluoromethylsulfonyl)imide, C12H19F6N3O4S2
Compound 9: 1-butyl-3-methylimidazolium bis((trifluoromethyl)sulfonyl)amide, C10H15F6N3O4S2

System: 1-isobutyl-3-methylimidazolium bis[(trifluoromethyl)sulfonyl]amide; phases: Liquid
Fixed: Pressure, kPa = 101.325
Property: Molar heat capacity at constant pressure, J/K/mol (Liquid); method: Drop calorimetry
Temperature, K	Molar heat capacity at constant pressure, J/K/mol	uncertainty
298.15	565.3058252416	.4193663392

System: 1-isobutyl-3-methylimidazolium bis[(trifluoromethyl)sulfonyl]amide; phases: Liquid
Fixed: Pressure, kPa = 101.325
Property: Mass density, kg/m3 (Liquid); method: Vibrating tube method
Temperature, K	Mass density, kg/m3	uncertainty
293.15	1442.1	
298.15	1437.2	
303.15	1432.4	
308.15	1427.7	
313.15	1422.9	
318.15	1418.2	
323.15	1413.5	
328.15	1408.8	
333.15	1404.2	
338.15	1399.5	
343.15	1394.9	
348.15	1390.3	
353.15	1385.7	
358.15	1381.1	
363.15	1376.6	

System: 1-isobutyl-3-methylimidazolium bis[(trifluoromethyl)sulfonyl]amide; phases: Liquid, Air at 1 atmosphere
Property: Surface tension liquid-gas, N/m (Liquid); method: Pendant drop shape
Temperature, K	Surface tension liquid-gas, N/m	uncertainty
298.2	.03272	
308.2	.03226	
318.2	.03181	
328.2	.03135	
338.2	.0309	
343.2	.03067	

System: 1-isobutyl-3-methylimidazolium bis[(trifluoromethyl)sulfonyl]amide; phases: Liquid
Fixed: Pressure, kPa = 101.325
Property: Refractive index (Na D-line) (Liquid); method: Standard Abbe refractometry
Temperature, K	Refractive index (Na D-line)	uncertainty
288.15	1.4301	
293.15	1.42854	
298.15	1.42699	
303.15	1.42543	
308.15	1.42387	
313.15	1.42232	
318.15	1.42076	

System: 1-isobutyl-3-methylimidazolium bis[(trifluoromethyl)sulfonyl]amide; phases: Liquid
Fixed: Pressure, kPa = 101.325
Property: Viscosity, Pa*s (Liquid); method: Concentric cylinders viscometry
Temperature, K	Viscosity, Pa*s	uncertainty
293.15	.10735	
298.15	.08144	
303.15	.06336	
308.15	.0503	
313.15	.04069	
318.15	.0334	
323.15	.02781	
328.15	.02346	
333.15	.02005	
338.15	.01724	
343.15	.01499	
348.15	.01314	
353.15	.01163	
358.15	.01031	
363.15	.00922	

System: 1-butyl-3-methylpyridinium 1,1,1-trifluoro-N-[(trifluoromethyl)sulfonyl]methanesulfonamide; phases: Liquid
Fixed: Pressure, kPa = 101.325
Property: Molar heat capacity at constant pressure, J/K/mol (Liquid); method: Drop calorimetry
Temperature, K	Molar heat capacity at constant pressure, J/K/mol	uncertainty
298.15	578.0123453456	.8607778784

System: 1-butyl-3-methylpyridinium 1,1,1-trifluoro-N-[(trifluoromethyl)sulfonyl]methanesulfonamide; phases: Liquid
Fixed: Pressure, kPa = 101.325
Property: Mass density, kg/m3 (Liquid); method: Vibrating tube method
Temperature, K	Mass density, kg/m3	uncertainty
293.15	1418.7	
298.15	1414.1	
303.15	1409.4	
308.15	1404.8	
313.15	1400.2	
318.15	1395.6	
323.15	1391.1	
328.15	1386.6	
333.15	1382	
338.15	1377.6	
343.15	1373.1	
348.15	1368.7	
353.15	1364.3	
358.15	1359.9	
363.15	1355.6	

System: 1-butyl-3-methylpyridinium 1,1,1-trifluoro-N-[(trifluoromethyl)sulfonyl]methanesulfonamide; phases: Liquid
Fixed: Pressure, kPa = 101.325
Property: Refractive index (Na D-line) (Liquid); method: Standard Abbe refractometry
Temperature, K	Refractive index (Na D-line)	uncertainty
288.15	1.44894	
293.15	1.44737	
298.15	1.4458	
303.15	1.44423	
308.15	1.44266	
313.15	1.44109	
318.15	1.43952	

System: 1-butyl-3-methylpyridinium 1,1,1-trifluoro-N-[(trifluoromethyl)sulfonyl]methanesulfonamide; phases: Liquid
Fixed: Pressure, kPa = 101.325
Property: Viscosity, Pa*s (Liquid); method: Concentric cylinders viscometry
Temperature, K	Viscosity, Pa*s	uncertainty
293.15	.0842	
298.15	.06574	
303.15	.05239	
308.15	.04246	
313.15	.03493	
318.15	.02913	
323.15	.02459	
328.15	.02097	
333.15	.0181	
338.15	.01571	
343.15	.01377	
348.15	.01215	
353.15	.01082	
358.15	.00966	
363.15	.00869	

System: 1-isobutyl-3-methylpyridinium bis((trifluoromethyl)sulfonyl)imide; phases: Liquid
Fixed: Pressure, kPa = 101.325
Property: Molar heat capacity at constant pressure, J/K/mol (Liquid); method: Drop calorimetry
Temperature, K	Molar heat capacity at constant pressure, J/K/mol	uncertainty
298.15	578.873123224	.8607778784

System: 1-isobutyl-3-methylpyridinium bis((trifluoromethyl)sulfonyl)imide; phases: Liquid
Fixed: Pressure, kPa = 101.325
Property: Mass density, kg/m3 (Liquid); method: Vibrating tube method
Temperature, K	Mass density, kg/m3	uncertainty
293.15	1417.2	
298.15	1412.6	
303.15	1408	
308.15	1403.4	
313.15	1398.8	
318.15	1394.2	
323.15	1389.7	
328.15	1385.1	
333.15	1380.6	
338.15	1376.1	
343.15	1371.6	
348.15	1367.2	
353.15	1362.8	
358.15	1358.4	
363.15	1354.1	

System: 1-isobutyl-3-methylpyridinium bis((trifluoromethyl)sulfonyl)imide; phases: Liquid, Air at 1 atmosphere
Property: Surface tension liquid-gas, N/m (Liquid); method: Pendant drop shape
Temperature, K	Surface tension liquid-gas, N/m	uncertainty
298.2	.03345	
308.2	.03299	
318.2	.03254	
328.2	.03208	
338.2	.03163	
343.2	.0314	

System: 1-isobutyl-3-methylpyridinium bis((trifluoromethyl)sulfonyl)imide; phases: Liquid
Fixed: Pressure, kPa = 101.325
Property: Refractive index (Na D-line) (Liquid); method: Standard Abbe refractometry
Temperature, K	Refractive index (Na D-line)	uncertainty
288.15	1.44902	
293.15	1.44743	
298.15	1.44585	
303.15	1.44426	
308.15	1.44268	
313.15	1.44109	
318.15	1.43951	

System: 1-isobutyl-3-methylpyridinium bis((trifluoromethyl)sulfonyl)imide; phases: Liquid
Fixed: Pressure, kPa = 101.325
Property: Viscosity, Pa*s (Liquid); method: Concentric cylinders viscometry
Temperature, K	Viscosity, Pa*s	uncertainty
293.15	.13542	
298.15	.1001	
303.15	.07634	
308.15	.05956	
313.15	.04748	
318.15	.03842	
323.15	.03163	
328.15	.0264	
333.15	.02236	
338.15	.01908	
343.15	.01647	
348.15	.01435	
353.15	.01263	
358.15	.01114	
363.15	.00993	

System: 1-butyl-1-methylpyrrolidinium bis(trifluoromethylsulfonyl)imide; phases: Crystal, Liquid, Air at 1 atmosphere
Property: Normal melting temperature, K (Crystal); method: DSC/DTA
Normal melting temperature, K	uncertainty
259.7	.5

System: 1-butyl-1-methylpyrrolidinium bis(trifluoromethylsulfonyl)imide; phases: Crystal, Liquid, Air at 1 atmosphere
Property: Molar enthalpy of transition or fusion, kJ/mol (Crystal); method: DSC
Molar enthalpy of transition or fusion, kJ/mol	uncertainty
20.2	.7

System: 1-butyl-1-methylpyrrolidinium bis(trifluoromethylsulfonyl)imide; phases: Liquid
Fixed: Pressure, kPa = 101.325
Property: Molar heat capacity at constant pressure, J/K/mol (Liquid); method: Drop calorimetry
Temperature, K	Molar heat capacity at constant pressure, J/K/mol	uncertainty
298.15	584.1930288936	.4224099992

System: 1-butyl-1-methylpyrrolidinium bis(trifluoromethylsulfonyl)imide; phases: Liquid
Fixed: Pressure, kPa = 101.325
Property: Mass density, kg/m3 (Liquid); method: Vibrating tube method
Temperature, K	Mass density, kg/m3	uncertainty
293.15	1406.1	
298.15	1401.6	
303.15	1397.2	
308.15	1392.7	
313.15	1388.3	
318.15	1383.8	
323.15	1379.4	
328.15	1375.1	
333.15	1370.7	
338.15	1366.4	
343.15	1362.1	
348.15	1357.8	
353.15	1353.6	
358.15	1349.3	
363.15	1345.1	

System: 1-butyl-1-methylpyrrolidinium bis(trifluoromethylsulfonyl)imide; phases: Liquid
Fixed: Pressure, kPa = 101.325
Property: Refractive index (Na D-line) (Liquid); method: Standard Abbe refractometry
Temperature, K	Refractive index (Na D-line)	uncertainty
288.15	1.42612	
293.15	1.42466	
298.15	1.42319	
303.15	1.42173	
308.15	1.42027	
313.15	1.4188	
318.15	1.41734	

System: 1-butyl-1-methylpyrrolidinium bis(trifluoromethylsulfonyl)imide; phases: Liquid
Fixed: Pressure, kPa = 101.325
Property: Viscosity, Pa*s (Liquid); method: Concentric cylinders viscometry
Temperature, K	Viscosity, Pa*s	uncertainty
293.15	.10171	
298.15	.07957	
303.15	.06364	
308.15	.05171	
313.15	.04267	
318.15	.0356	
323.15	.03007	
328.15	.02566	
333.15	.02216	
338.15	.01921	
343.15	.01683	
348.15	.01484	
353.15	.01321	
358.15	.01177	
363.15	.01057	

System: 1-isobutyl-1-methylpyrrolidinium bis((trifluoromethyl)sulfonyl)imide; phases: Crystal, Liquid, Air at 1 atmosphere
Property: Normal melting temperature, K (Crystal); method: DSC/DTA
Normal melting temperature, K	uncertainty
272.9	.5

System: 1-isobutyl-1-methylpyrrolidinium bis((trifluoromethyl)sulfonyl)imide; phases: Crystal, Liquid, Air at 1 atmosphere
Property: Molar enthalpy of transition or fusion, kJ/mol (Crystal); method: DSC
Molar enthalpy of transition or fusion, kJ/mol	uncertainty
13.1	.7

System: 1-isobutyl-1-methylpyrrolidinium bis((trifluoromethyl)sulfonyl)imide; phases: Liquid
Fixed: Pressure, kPa = 101.325
Property: Molar heat capacity at constant pressure, J/K/mol (Liquid); method: Drop calorimetry
Temperature, K	Molar heat capacity at constant pressure, J/K/mol	uncertainty
298.15	582.0809788976	.8448199984

System: 1-isobutyl-1-methylpyrrolidinium bis((trifluoromethyl)sulfonyl)imide; phases: Liquid
Fixed: Pressure, kPa = 101.325
Property: Mass density, kg/m3 (Liquid); method: Vibrating tube method
Temperature, K	Mass density, kg/m3	uncertainty
293.15	1404.5	
298.15	1400	
303.15	1395.6	
308.15	1391.2	
313.15	1386.8	
318.15	1382.4	
323.15	1378	
328.15	1373.7	
333.15	1369.4	
338.15	1365.2	
343.15	1360.9	
348.15	1356.7	
353.15	1352.5	
358.15	1348.3	
363.15	1344.1	

System: 1-isobutyl-1-methylpyrrolidinium bis((trifluoromethyl)sulfonyl)imide; phases: Liquid, Air at 1 atmosphere
Property: Surface tension liquid-gas, N/m (Liquid); method: Pendant drop shape
Temperature, K	Surface tension liquid-gas, N/m	uncertainty
298.2	.03354	
308.2	.0331	
318.2	.03265	
328.2	.0322	
338.2	.03175	
343.2	.03153	

System: 1-isobutyl-1-methylpyrrolidinium bis((trifluoromethyl)sulfonyl)imide; phases: Liquid
Fixed: Pressure, kPa = 101.325
Property: Refractive index (Na D-line) (Liquid); method: Standard Abbe refractometry
Temperature, K	Refractive index (Na D-line)	uncertainty
288.15	1.42708	
293.15	1.42563	
298.15	1.42418	
303.15	1.42273	
308.15	1.42127	
313.15	1.41982	
318.15	1.41837	

System: 1-isobutyl-1-methylpyrrolidinium bis((trifluoromethyl)sulfonyl)imide; phases: Liquid
Fixed: Pressure, kPa = 101.325
Property: Viscosity, Pa*s (Liquid); method: Concentric cylinders viscometry
Temperature, K	Viscosity, Pa*s	uncertainty
293.15	.08361	
298.15	.06629	
303.15	.05353	
308.15	.04391	
313.15	.03652	
318.15	.03075	
323.15	.02618	
328.15	.02252	
333.15	.01957	
338.15	.01709	
343.15	.01506	
348.15	.01336	
353.15	.01195	
358.15	.0107	
363.15	.00965	

System: 1-butyl-1-methylpiperidinium bis(trifluoromethanesulfonyl)imide; phases: Liquid
Fixed: Pressure, kPa = 101.325
Property: Molar heat capacity at constant pressure, J/K/mol (Liquid); method: Drop calorimetry
Temperature, K	Molar heat capacity at constant pressure, J/K/mol	uncertainty
298.15	607.5197182464	.8728731584

System: 1-butyl-1-methylpiperidinium bis(trifluoromethanesulfonyl)imide; phases: Liquid
Fixed: Pressure, kPa = 101.325
Property: Mass density, kg/m3 (Liquid); method: Vibrating tube method
Temperature, K	Mass density, kg/m3	uncertainty
293.15	1386.9	
298.15	1382.5	
303.15	1378.1	
308.15	1373.8	
313.15	1369.5	
318.15	1365.2	
323.15	1361	
328.15	1356.7	
333.15	1352.5	
338.15	1348.3	
343.15	1344.1	
348.15	1340	
353.15	1335.9	
358.15	1331.8	
363.15	1327.7	

System: 1-butyl-1-methylpiperidinium bis(trifluoromethanesulfonyl)imide; phases: Liquid, Air at 1 atmosphere
Property: Surface tension liquid-gas, N/m (Liquid); method: Pendant drop shape
Temperature, K	Surface tension liquid-gas, N/m	uncertainty
298.2	.03414	
308.2	.03365	
318.2	.03317	
328.2	.03268	
338.2	.0322	
343.2	.03196	

System: 1-butyl-1-methylpiperidinium bis(trifluoromethanesulfonyl)imide; phases: Liquid
Fixed: Pressure, kPa = 101.325
Property: Refractive index (Na D-line) (Liquid); method: Standard Abbe refractometry
Temperature, K	Refractive index (Na D-line)	uncertainty
288.15	1.43251	
293.15	1.43105	
298.15	1.42959	
303.15	1.42813	
308.15	1.42667	
313.15	1.42521	
318.15	1.42375	

System: 1-butyl-1-methylpiperidinium bis(trifluoromethanesulfonyl)imide; phases: Liquid
Fixed: Pressure, kPa = 101.325
Property: Viscosity, Pa*s (Liquid); method: Concentric cylinders viscometry
Temperature, K	Viscosity, Pa*s	uncertainty
293.15	.26128	
298.15	.18911	
303.15	.14144	
308.15	.10827	
313.15	.08487	
318.15	.06724	
323.15	.05434	
328.15	.04455	
333.15	.03709	
338.15	.03109	
343.15	.02641	
348.15	.02265	
353.15	.01965	
358.15	.01709	
363.15	.01501	

System: 1-isobutyl-1-methylpiperidinium bis((trifluoromethyl)sulfonyl)imide; phases: Crystal, Liquid, Air at 1 atmosphere
Property: Normal melting temperature, K (Crystal); method: DSC/DTA
Normal melting temperature, K	uncertainty
287.9	.5

System: 1-isobutyl-1-methylpiperidinium bis((trifluoromethyl)sulfonyl)imide; phases: Crystal, Liquid, Air at 1 atmosphere
Property: Molar enthalpy of transition or fusion, kJ/mol (Crystal); method: DSC
Molar enthalpy of transition or fusion, kJ/mol	uncertainty
2.4	.7

System: 1-isobutyl-1-methylpiperidinium bis((trifluoromethyl)sulfonyl)imide; phases: Liquid
Fixed: Pressure, kPa = 101.325
Property: Mass density, kg/m3 (Liquid); method: Vibrating tube method
Temperature, K	Mass density, kg/m3	uncertainty
303.15	1392.9	
308.15	1388.6	
313.15	1384.4	
318.15	1380.1	
323.15	1375.9	
328.15	1371.7	
333.15	1367.5	
338.15	1363.3	
343.15	1359.1	
348.15	1355	
353.15	1350.8	
358.15	1346.7	
363.15	1342.7	

System: 1-isobutyl-1-methylpiperidinium bis((trifluoromethyl)sulfonyl)imide; phases: Liquid, Air at 1 atmosphere
Property: Surface tension liquid-gas, N/m (Liquid); method: Pendant drop shape
Temperature, K	Surface tension liquid-gas, N/m	uncertainty
308.2	.0339	
318.2	.03345	
328.2	.03301	
338.2	.03256	
343.2	.03234	

System: 1-isobutyl-1-methylpiperidinium bis((trifluoromethyl)sulfonyl)imide; phases: Liquid
Fixed: Pressure, kPa = 101.325
Property: Refractive index (Na D-line) (Liquid); method: Standard Abbe refractometry
Temperature, K	Refractive index (Na D-line)	uncertainty
288.15	1.43387	
293.15	1.43243	
298.15	1.43099	
303.15	1.42955	
308.15	1.42812	
313.15	1.42668	
318.15	1.42524	
323.15	1.42381	
328.15	1.42237	
333.15	1.42093	

System: 1-isobutyl-1-methylpiperidinium bis((trifluoromethyl)sulfonyl)imide; phases: Liquid
Fixed: Pressure, kPa = 101.325
Property: Viscosity, Pa*s (Liquid); method: Concentric cylinders viscometry
Temperature, K	Viscosity, Pa*s	uncertainty
303.15	.12512	
308.15	.0964	
313.15	.07603	
318.15	.06067	
323.15	.04934	
328.15	.04071	
333.15	.03411	
338.15	.02876	
343.15	.02457	
348.15	.02118	
353.15	.01847	
358.15	.01614	
363.15	.01425	

System: 1-hexyl-3-methylimidazolium bis(trifluoromethylsulfonyl)imide; phases: Crystal, Liquid, Air at 1 atmosphere
Property: Normal melting temperature, K (Crystal); method: DSC/DTA
Normal melting temperature, K	uncertainty
262.6	.5

System: 1-butyl-3-methylimidazolium bis((trifluoromethyl)sulfonyl)amide; phases: Liquid
Fixed: Pressure, kPa = 101.325
Property: Molar heat capacity at constant pressure, J/K/mol (Liquid); method: Drop calorimetry
Temperature, K	Molar heat capacity at constant pressure, J/K/mol	uncertainty
298.15	565.7251915808	.8387326784

System: 1-butyl-3-methylimidazolium bis((trifluoromethyl)sulfonyl)amide; phases: Liquid
Fixed: Pressure, kPa = 101.325
Property: Refractive index (Na D-line) (Liquid); method: Standard Abbe refractometry
Temperature, K	Refractive index (Na D-line)	uncertainty
288.15	1.430149	
293.15	1.428601	
298.15	1.427052	
303.15	1.425504	
308.15	1.423956	
313.15	1.422407	
318.15	1.420859	
