Measured thermophysical data. Low pressure solubilities of CO2 in guanidinium trifluoromethanesulfonate-MDEA systems
Source: Fluid Phase Equilib., 2015, 10.1016/j.fluid.2014.11.009
Compound 1: guanidinium trifluoromethanesulfonate, C2H6F3N3O3S, purity 98.5%
Compound 2: N-methyldiethanolamine, C5H13NO2, purity 98%
Compound 3: sodium hydroxide, HNaO, purity 99%
Compound 4: barium chloride, BaCl2, purity 99%
Compound 5: sodium bicarbonate, CHNaO3, purity 99%
Compound 6: carbon dioxide, CO2, purity 99.995%
Compound 7: water, H2O

System: N-methyldiethanolamine; phases: Liquid
Property: Mass density, kg/m3 (Liquid); method: Vibrating tube method
Pressure, kPa	Temperature, K	Mass density, kg/m3	uncertainty
101	313.2	1026.7	1.0267
101	323.2	1018.9	1.0189

System: N-methyldiethanolamine; phases: Liquid
Property: Viscosity, Pa*s (Liquid); method: Cone and plate viscometry
Pressure, kPa	Temperature, K	Viscosity, Pa*s	uncertainty
101	303.2	.0563	.001689
101	313.2	.03444	.0010332
101	323.2	.02293	.0006879

System: N-methyldiethanolamine + water + guanidinium trifluoromethanesulfonate; phases: Liquid
Fixed: Pressure, kPa = 101
Property: Mass density, kg/m3 (Liquid); method: Vibrating tube method
Temperature, K	Mole fraction of N-methyldiethanolamine	Mole fraction of guanidinium trifluoromethanesulfonate	Mass density, kg/m3	uncertainty
293.2	.1842	.0903	1189.9	1.1899
298.2	.1842	.0903	1187	1.187
303.2	.1842	.0903	1183.9	1.1839
313.2	.1842	.0903	1176.2	1.1762
323.2	.1842	.0903	1168.3	1.1683
333.2	.1842	.0903	1160.3	1.1603
343.2	.1842	.0903	1154.2	1.1542
353.2	.1842	.0903	1146.5	1.1465
363.2	.1842	.0903	1138.3	1.1383
293.2	.1416	.0347	1120.7	1.1207
298.2	.1416	.0347	1117.8	1.1178
303.2	.1416	.0347	1114.7	1.1147
313.2	.1416	.0347	1107.5	1.1075
323.2	.1416	.0347	1100.1	1.1001
333.2	.1416	.0347	1092.4	1.0924
343.2	.1416	.0347	1086.8	1.0868
353.2	.1416	.0347	1079.1	1.0791
363.2	.1416	.0347	1070.9	1.0709
293.2	.1168	0	1043.3	1.0433
298.2	.1168	0	1040.4	1.0404
303.2	.1168	0	1037.3	1.0373
313.2	.1168	0	1030.8	1.0308
323.2	.1168	0	1024.1	1.0241
333.2	.1168	0	1016.9	1.0169
343.2	.1168	0	1009.4	1.0094
353.2	.1168	0	1001.7	1.0017
363.2	.1168	0	993.5	.9935
293.2	.0931	.03163	1058	1.058
298.2	.0931	.03163	1055.3	1.0553
303.2	.0931	.03163	1052.5	1.0525
313.2	.0931	.03163	1046.7	1.0467
323.2	.0931	.03163	1040.4	1.0404
333.2	.0931	.03163	1033.7	1.0337
343.2	.0931	.03163	1026.6	1.0266
353.2	.0931	.03163	1019.2	1.0192
363.2	.0931	.03163	1011.4	1.0114
293.2	.0715	.0728	1075.1	1.0751
298.2	.0715	.0728	1072.6	1.0726
303.2	.0715	.0728	1070	1.07
313.2	.0715	.0728	1064.4	1.0644
323.2	.0715	.0728	1058.4	1.0584
333.2	.0715	.0728	1051.9	1.0519
343.2	.0715	.0728	1045.1	1.0451
353.2	.0715	.0728	1037.8	1.0378
363.2	.0715	.0728	1030.2	1.0302
293.2	.0424	.1297	1093	1.093
298.2	.0424	.1297	1090.7	1.0907
303.2	.0424	.1297	1088.2	1.0882
313.2	.0424	.1297	1082.7	1.0827
323.2	.0424	.1297	1076.8	1.0768
333.2	.0424	.1297	1070.5	1.0705
343.2	.0424	.1297	1063.7	1.0637
353.2	.0424	.1297	1056.3	1.0563
363.2	.0424	.1297	1046.9	1.0469
293.2	.0192	0	1011.8	1.0118
298.2	.0192	0	1008.9	1.0089
303.2	.0192	0	1005.8	1.0058
313.2	.0192	0	999.7	.9997
323.2	.0192	0	993.1	.9931
333.2	.0192	0	983.8	.9838
343.2	.0192	0	977.9	.9779
353.2	.0192	0	970.1	.9701
363.2	.0192	0	962	.962
293.2	0	.2073	1109.6	1.1096
298.2	0	.2073	1107.3	1.1073
303.2	0	.2073	1104.9	1.1049
313.2	0	.2073	1099.6	1.0996
323.2	0	.2073	1093.8	1.0938
333.2	0	.2073	1087.5	1.0875
343.2	0	.2073	1080.8	1.0808
353.2	0	.2073	1077.9	1.0779
363.2	0	.2073	1075.9	1.0759
293.2	0	.0202	1084.8	1.0848
298.2	0	.0202	1081.9	1.0819
303.2	0	.0202	1078.8	1.0788
313.2	0	.0202	1073.9	1.0739
323.2	0	.0202	1068.4	1.0684
333.2	0	.0202	1062.3	1.0623
343.2	0	.0202	1050.9	1.0509
353.2	0	.0202	1043.2	1.0432
363.2	0	.0202	1035	1.035

System: N-methyldiethanolamine + water + guanidinium trifluoromethanesulfonate; phases: Liquid
Fixed: Pressure, kPa = 101
Property: Viscosity, Pa*s (Liquid); method: Cone and plate viscometry
Mole fraction of N-methyldiethanolamine	Temperature, K	Mole fraction of guanidinium trifluoromethanesulfonate	Viscosity, Pa*s	uncertainty
.1168	303.2	0	.006671	.00020013
.1842	303.2	.0903	.011059	.00033177
.1416	303.2	.0347	.008931	.00026793
.1407	303.2	.031	.0084308	.000252924
.1342	303.2	.023	.0081444	.000244332
.1283	303.2	.0157	.0079621	.000238863
.1229	303.2	.009	.0075206	.000225618
.1179	303.2	.0029	.0071759	.000215277
.1168	313.2	0	.004706	.00014118
.1842	313.2	.0903	.008745	.00026235
.1416	313.2	.0347	.007105	.00021315
.1407	313.2	.031	.0067792	.000203376
.1342	313.2	.023	.0063106	.000189318
.1283	313.2	.0157	.0058997	.000176991
.1229	313.2	.009	.0056893	.000170679
.1179	313.2	.0029	.0053001	.000159003
.1168	323.2	0	.003057	.00009171
.1842	323.2	.0903	.00659	.0001977
.1416	323.2	.0347	.005328	.00015984
.1407	323.2	.031	.0046981	.000140943
.1342	323.2	.023	.0043381	.000130143
.1283	323.2	.0157	.0041113	.000123339
.1229	323.2	.009	.0037005	.000111015
.1179	323.2	.0029	.0034903	.000104709
.1168	333.2	0	.002193	.00006579
.1842	333.2	.0903	.00527	.0001581
.1416	333.2	.0347	.004151	.00012453
.1407	333.2	.031	.0039083	.000117249
.1342	333.2	.023	.0036169	.000108507
.1283	333.2	.0157	.0033466	.000100398
.1229	333.2	.009	.0029231	.000087693
.1179	333.2	.0029	.0026002	.000078006
.1168	343.2	0	.001589	.00004767
.1842	343.2	.0903	.004352	.00013056
.1416	343.2	.0347	.003208	.00009624
.1407	343.2	.031	.0030099	.000090297
.1342	343.2	.023	.0028009	.000084027
.1283	343.2	.0157	.0025511	.000076533
.1229	343.2	.009	.0021332	.000063996
.1179	343.2	.0029	.0018222	.000054666
.1168	353.2	0	.001194	.00003582
.1842	353.2	.0903	.003599	.00010797
.1416	353.2	.0347	.002561	.00007683
.1407	353.2	.031	.0024041	.000072123
.1342	353.2	.023	.0022833	.000068499
.1283	353.2	.0157	.0020138	.000060414
.1229	353.2	.009	.0018954	.000056862
.1179	353.2	.0029	.0016865	.000050595

System: N-methyldiethanolamine + water; phases: Liquid
Fixed: Pressure, kPa = 101
Property: Viscosity, Pa*s (Liquid); method: Cone and plate viscometry
Temperature, K	Mole fraction of N-methyldiethanolamine	Viscosity, Pa*s	uncertainty
303.2	.0192	.001568	.00004704
313.2	.0192	.001178	.00003534
323.2	.0192	.000796	.00002388
333.2	.0192	.000688	.00002064
303.2	.1168	.006671	.00020013
313.2	.1168	.004706	.00014118
323.2	.1168	.003057	.00009171
333.2	.1168	.002193	.00006579
343.2	.1168	.001589	.00004767
353.2	.1168	.001194	.00003582

System: N-methyldiethanolamine + water; phases: Liquid
Property: Mass density, kg/m3 (Liquid); method: Vibrating tube method
Temperature, K	Mole fraction of N-methyldiethanolamine	Pressure, kPa	Mass density, kg/m3	uncertainty
293.2	.1168	101	1043.3	1.0433
298.2	.1168	101	1040.4	1.0404
303.2	.1168	101	1037.3	1.0373
313.2	.1168	101	1030.8	1.0308
323.2	.1168	101	1024.1	1.0241
333.2	.1168	101	1016.9	1.0169
343.2	.1168	101	1009.4	1.0094
353.2	.1168	101	1001.7	1.0017
363.2	.1168	101	993.5	.9935
293.2	.0192	101	1011.8	1.0118
298.2	.0192	101	1008.9	1.0089
303.2	.0192	101	1005.8	1.0058
313.2	.0192	101	999.7	.9997
323.2	.0192	101	993.1	.9931
333.2	.0192	101	983.8	.9838
343.2	.0192	101	977.9	.9779
353.2	.0192	101	970.1	.9701
363.2	.0192	101	962	.962

System: water + guanidinium trifluoromethanesulfonate; phases: Liquid
Fixed: Pressure, kPa = 101
Property: Viscosity, Pa*s (Liquid); method: Cone and plate viscometry
Temperature, K	Mole fraction of guanidinium trifluoromethanesulfonate	Viscosity, Pa*s	uncertainty
303.2	.2073	.0013611	.000040833
313.2	.2073	.001098	.00003294
323.2	.2073	.0009221	.000027663
333.2	.2073	.00067	.0000201
303.2	.0202	.00098552	.0000295656
313.2	.0202	.0008374	.000025122
323.2	.0202	.0007438	.000022314
333.2	.0202	.0006544	.000019632
303.2	.0181	.0009134	.000027402
313.2	.0181	.0008268	.000024804
323.2	.0181	.0007268	.000021804
333.2	.0181	.0006302	.000018906
303.2	.0137	.0008616	.000025848
313.2	.0137	.0007326	.000021978
323.2	.0137	.0006872	.000020616
333.2	.0137	.0006095	.000018285
303.2	.0095	.0008208	.000024624
313.2	.0095	.0006976	.000020928
323.2	.0095	.0006517	.000019551
333.2	.0095	.0005834	.000017502
303.2	.0056	.0007996	.000023988
313.2	.0056	.0006757	.000020271
323.2	.0056	.0006289	.000018867
333.2	.0056	.0005686	.000017058
303.2	.0018	.0007366	.000022098
313.2	.0018	.0006512	.000019536
323.2	.0018	.0006047	.000018141
333.2	.0018	.0005555	.000016665

System: water + guanidinium trifluoromethanesulfonate; phases: Liquid
Property: Mass density, kg/m3 (Liquid); method: Vibrating tube method
Temperature, K	Mole fraction of guanidinium trifluoromethanesulfonate	Pressure, kPa	Mass density, kg/m3	uncertainty
293.2	.2073	101	1125	1.125
298.2	.2073	101	1120.3	1.1203
303.2	.2073	101	1116.9	1.1169
313.2	.2073	101	1110.6	1.1106
323.2	.2073	101	1103.8	1.1038
333.2	.2073	101	1097.5	1.0975
343.2	.2073	101	1088.8	1.0888
353.2	.2073	101	1080	1.08
363.2	.2073	101	1072.1	1.0721
293.2	.0202	101	1087.8	1.0878
298.2	.0202	101	1084	1.084
303.2	.0202	101	1080.8	1.0808
313.2	.0202	101	1073.9	1.0739
323.2	.0202	101	1067.4	1.0674
333.2	.0202	101	1059.3	1.0593
343.2	.0202	101	1050.9	1.0509
353.2	.0202	101	1043.2	1.0432
363.2	.0202	101	1035	1.035

System: N-methyldiethanolamine + carbon dioxide + water; phases: Liquid, Gas
Fixed: Temperature, K = 303.2
Property: Mole fraction of carbon dioxide (Liquid); method: Titration method
Partial pressure, kPa of carbon dioxide	Solvent: Mole fraction of N-methyldiethanolamine	Mole fraction of carbon dioxide	uncertainty
10	.1168	.342	.001
50	.1168	.582	.001
100	.1168	.748	.001
10	.0192	.102	.001
50	.0192	.242	.001
100	.0192	.713	.001

System: carbon dioxide + water + guanidinium trifluoromethanesulfonate; phases: Liquid, Gas
Fixed: Temperature, K = 303.2
Property: Mole fraction of carbon dioxide (Liquid); method: Titration method
Partial pressure, kPa of carbon dioxide	Solvent: Mole fraction of guanidinium trifluoromethanesulfonate	Mole fraction of carbon dioxide	uncertainty
10	.2073	.043	.001
50	.2073	.342	.001
100	.2073	.371	.001
10	.0202	.041	.001
50	.0202	.242	.001
100	.0202	.291	.001
