Measured thermophysical data. Ideal-gas heat capacities of dimethylsiloxanes from speed-of-sound  measurements and ab initio calculations
Source: Fluid Phase Equilib., 2007
Compound 1: octamethylcyclotetrasiloxane, C8H24O4Si4
Compound 2: decamethylcyclopentasiloxane, C10H30O5Si5

System: octamethylcyclotetrasiloxane; phases: Fluid (supercritical or subcritical phases)
Property: Speed of sound, m/s (Fluid (supercritical or subcritical phases)); method: Cylindrical cavity resonance method
Temperature, K	Pressure, kPa	Speed of sound, m/s	uncertainty
450	38.9	110.351	.0252
450	46.7	109.656	.00898
450	57.41	108.801	.00722
450	62.89	108.299	.0017
450	69.33	107.727	.00164
465	31.29	113.043	.06389
465	40.99	112.32	.0123
465	49.18	111.723	.00692
465	58.99	110.976	.00202
465	70.69	110.062	.00165
465	77.48	109.53	.00249
465	92.89	108.286	.00099
465	101.01	107.535	.00143
465	111.4	106.695	.00053
465	121.67	105.761	.00074
465	36.51	112.753	.01386
465	47.85	111.913	.00372
465	57.21	111.202	.00253
465	68.51	110.332	.00144
465	74.87	109.829	.00107
465	81.72	109.278	.00265
465	97.68	107.963	.02708
465	106.95	107.179	.00897
465	116.93	106.3	.03351
465	32.63	112.986	.02425
465	46.84	111.935	.00533
465	61.46	110.824	.00188
465	73.59	109.872	.00153
465	87.87	108.72	.0009
465	105.11	107.277	.0015
465	123.48	105.664	.00174
480	42.7	114.022	.00562
480	54.67	113.202	.00181
480	65.08	112.478	.00361
480	71.3	112.038	.00246
480	85.5	111.071	.00249
480	92.46	110.502	.00121
480	109.21	109.241	.00045
480	118.88	108.493	.00031
480	129.21	107.675	.00068
480	140.39	106.769	.00112
480	152.36	105.769	.00086
480	165.42	104.642	.00063
495	27.45	117.135	.02008
495	36.2	116.658	.00716
495	47.54	115.985	.00156
495	143.41	109.744	.02833
495	159.7	108.434	.00205
495	160.4	108.391	.0105
495	174.53	107.346	.00446
495	186.64	106.439	.00787
495	198.61	105.492	.12874
495	224.52	103.408	.00318

System: decamethylcyclopentasiloxane; phases: Fluid (supercritical or subcritical phases)
Property: Speed of sound, m/s (Fluid (supercritical or subcritical phases)); method: Cylindrical cavity resonance method
Temperature, K	Pressure, kPa	Speed of sound, m/s	uncertainty
485	35.39	101.908	.02389
485	43.63	101.141	.04506
485	49.43	100.666	.00752
485	55.24	100.36	.00445
485	63.6	99.197	.01199
485	64.42	99.132	.01014
485	74.85	98.38	.0097
485	82.92	97.275	.00623
485	85.12	97.17	.00567
500	42.7	103.271	.01342
500	22.48	104.919	.01268
500	47.88	102.87	.00327
500	26.3	104.683	.00163
500	51.58	102.577	.00006
500	31.33	104.222	.00754
500	55.42	102.199	.01615
500	32.27	104.14	.00119
500	33.93	103.964	.02157
500	64.64	101.5	.00319
500	64.96	101.44	.01226
500	73.64	100.81	.00634
500	74.95	100.631	.00179
500	78.98	100.217	.00286
500	22.13	104.938	0
500	39.9	103.532	.00262
500	85.9	99.495	.00655
500	95.37	98.558	.0054
500	105.42	97.603	.0059
500	116.6	96.555	.02195
510	82.51	101.583	.00203
510	62.78	103.98	.02619
510	72.53	102.369	.00054
510	51.27	104.86	.00557
510	89.89	100.871	.00495
510	92.75	100.754	.00059
510	34.55	105.2	.00317
510	103.28	99.891	.00825
510	43.26	104.679	.00192
510	110.69	99.98	.01201
510	57.1	103.487	.00527
