Measured thermophysical data. Experimental and correlated tie-line data for aqueous mixtures of 2-butanol with  2-ethyl-1-hexanol at various temperatures
Source: Fluid Phase Equilib., 2011, 10.1016/j.fluid.2011.08.023
Compound 1: water, H2O, purity 99.8%
Compound 2: (RS)-2-butanol, C4H10O, purity 99%
Compound 3: 2-ethyl-1-hexanol, C8H18O, purity 99%

System: (RS)-2-butanol + 2-ethyl-1-hexanol + water; phases: Liquid mixture 1, Liquid mixture 2
Fixed: Pressure, kPa = 101
Property: Mole fraction of water (Liquid mixture 1); method: Chromatography
Property: Mole fraction of (RS)-2-butanol (Liquid mixture 2); method: Chromatography
Property: Mole fraction of water (Liquid mixture 2); method: Chromatography
Temperature, K	Mole fraction of (RS)-2-butanol	Mole fraction of water	uncertainty	Mole fraction of (RS)-2-butanol	uncertainty	Mole fraction of water	uncertainty
298.2	.0147	.9801	.0005	.0853	.0005	.005	.0005
308.2	.0724	.9238	.0005	.3949	.0005	.0549	.0005
308.2	.0871	.9095	.0005	.4421	.0005	.063	.0005
308.2	.0939	.9029	.0005	.5044	.0005	.076	.0005
318.2	.0195	.9761	.0005	.8972	.0005	.0036	.0005
318.2	.0249	.971	.0005	.1748	.0005	.0169	.0005
318.2	.0499	.9467	.0005	.6503	.0005	.0355	.0005
318.2	.0641	.9328	.0005	.4021	.0005	.0483	.0005
318.2	.0736	.9235	.0005	.4501	.0005	.0593	.0005
318.2	.0796	.9177	.0005	.508	.0005	.0801	.0005
328.2	.0117	.98	.0005	.1111	.0005	.0101	.0005
298.2	.0351	.9603	.0005	.1785	.0005	.0209	.0005
328.2	.0252	.9673	.0005	.1899	.0005	.0298	.0005
328.2	.0408	.9527	.0005	.299	.0005	.0571	.0005
328.2	.0534	.9409	.0005	.3758	.0005	.0763	.0005
328.2	.0592	.9355	.0005	.4465	.0005	.0939	.0005
328.2	.065	.93	.0005	.4869	.0005	.104	.0005
298.2	.0645	.9316	.0005	.289	.0005	.0397	.0005
298.2	.0814	.915	.0005	.3713	.0005	.0537	.0005
298.2	.1007	.8962	.0005	.4319	.0005	.064	.0005
298.2	.1075	.8896	.0005	.4926	.0005	.0743	.0005
308.2	.017	.9779	.0005	.1009	.0005	.0047	.0005
308.2	.0238	.9713	.0005	.179	.0005	.0183	.0005
308.2	.06	.936	.0005	.3022	.0005	.0384	.0005
