Measured thermophysical data. Measurement and prediction of activity coefficients at infinite dilution (   ),  vapor.liquid equilibria (VLE) and excess enthalpies (HE) of binary systems  with 1,1-dialkyl-pyrrolidinium bis(trifluoromethylsulfonyl)imide using mod.  UNIFAC (Dortmund)
Source: Fluid Phase Equilib., 2009, 10.1016/j.fluid.2008.11.013
Compound 1: 1-pentene, C5H10
Compound 2: 1-hexene, C6H12
Compound 3: 1-heptene, C7H14
Compound 4: 1-octene, C8H16
Compound 5: 1-decene, C10H20
Compound 6: hexane, C6H14
Compound 7: heptane, C7H16
Compound 8: octane, C8H18
Compound 9: pentane, C5H12
Compound 10: nonane, C9H20
Compound 11: decane, C10H22
Compound 12: 1-butyl-1-methylpyrrolidinium bis[(trifluoromethyl)sulfonyl]imide, C11H20F6N2O4S2, purity 99.5%
Compound 13: 1-hexyl-1-methylpyrrolidinium bis(trifluoromethanesulfonyl)imide, C13H24F6N2O4S2
Compound 14: 1-methyl-1-octylpyrrolidinium bis(trifluoromethylsulfonyl)amide, C15H28F6N2O4S2, purity 99.5%

System: 1-hexyl-1-methylpyrrolidinium bis(trifluoromethanesulfonyl)imide; phases: Liquid
Property: Mass density, kg/m3 (Liquid); method: Vibrating tube method
Temperature, K	Pressure, kPa	Mass density, kg/m3	uncertainty
278.16	101.325	1352.1	
283.14	101.325	1347.7	
288.14	101.325	1343.4	
293.15	101.325	1339.5	
298.14	101.325	1335.3	
303.14	101.325	1331.1	
308.14	101.325	1326.8	
313.14	101.325	1322.6	
318.14	101.325	1318.3	
323.14	101.325	1314.1	
328.14	101.325	1309.9	
333.14	101.325	1305.6	
338.15	101.325	1301.4	
343.14	101.325	1297.1	

System: 1-methyl-1-octylpyrrolidinium bis(trifluoromethylsulfonyl)amide; phases: Liquid
Property: Mass density, kg/m3 (Liquid); method: Vibrating tube method
Temperature, K	Pressure, kPa	Mass density, kg/m3	uncertainty
298.15	101.325	1291.2	
303.15	101.325	1286.9	
308.14	101.325	1283	
313.15	101.325	1279.1	
318.15	101.325	1275.1	
323.14	101.325	1271.4	
328.14	101.325	1267.5	
333.14	101.325	1263.7	
338.14	101.325	1259.7	
343.14	101.325	1255.7	
348.15	101.325	1251.7	

System: 1-pentene + 1-hexyl-1-methylpyrrolidinium bis(trifluoromethanesulfonyl)imide; phases: Liquid, Gas
Fixed: Mole fraction of 1-pentene = 0
Property: Activity coefficient of 1-pentene (Liquid); method: Chromatography
Temperature, K	Activity coefficient of 1-pentene	uncertainty
303.16	3.4	
313.17	3.37	
323.15	3.33	
333.15	3.31	

System: 1-hexene + 1-hexyl-1-methylpyrrolidinium bis(trifluoromethanesulfonyl)imide; phases: Liquid, Gas
Fixed: Mole fraction of 1-hexene = 0
Property: Activity coefficient of 1-hexene (Liquid); method: Chromatography
Temperature, K	Activity coefficient of 1-hexene	uncertainty
303.16	4.77	
313.17	4.63	
323.15	4.55	
333.15	4.45	

System: 1-heptene + 1-hexyl-1-methylpyrrolidinium bis(trifluoromethanesulfonyl)imide; phases: Liquid, Gas
Fixed: Mole fraction of 1-heptene = 0
Property: Activity coefficient of 1-heptene (Liquid); method: Chromatography
Temperature, K	Activity coefficient of 1-heptene	uncertainty
303.14	6.5	
313.16	6.31	
323.37	6.11	
333.16	6	

System: 1-octene + 1-hexyl-1-methylpyrrolidinium bis(trifluoromethanesulfonyl)imide; phases: Liquid, Gas
Fixed: Mole fraction of 1-octene = 0
Property: Activity coefficient of 1-octene (Liquid); method: Chromatography
Temperature, K	Activity coefficient of 1-octene	uncertainty
303.14	8.93	
313.16	8.61	
323.37	8.39	
333.16	8.2	

System: 1-octene + 1-hexyl-1-methylpyrrolidinium bis(trifluoromethanesulfonyl)imide; phases: Liquid, Gas
Fixed: Temperature, K = 363.15
Property: Vapor or sublimation pressure, kPa (Liquid); method: Closed cell (Static) method
Mole fraction of 1-octene	Vapor or sublimation pressure, kPa	uncertainty
.0068	2.007	
.0134	3.787	
.0202	5.59	
.0263	7.209	
.0331	8.99	
.0403	10.79	
.0463	12.22	
.0522	13.65	
.0644	16.46	
.0906	22.11	
.1414	31.58	

System: 1-decene + 1-hexyl-1-methylpyrrolidinium bis(trifluoromethanesulfonyl)imide; phases: Liquid, Gas
Fixed: Mole fraction of 1-decene = 0
Property: Activity coefficient of 1-decene (Liquid); method: Chromatography
Temperature, K	Activity coefficient of 1-decene	uncertainty
303.16	18.76	
313.15	17.99	
323.15	17.26	
333.16	16.85	

System: hexane + 1-methyl-1-octylpyrrolidinium bis(trifluoromethylsulfonyl)amide; phases: Liquid, Gas
Fixed: Mole fraction of hexane = 0
Property: Activity coefficient of hexane (Liquid); method: Chromatography
Temperature, K	Activity coefficient of hexane	uncertainty
303.16	5.24	
313.13	5.05	
323.17	4.9	
333.19	4.8	

System: hexane + 1-methyl-1-octylpyrrolidinium bis(trifluoromethylsulfonyl)amide; phases: Liquid, Gas
Fixed: Temperature, K = 363.15
Property: Vapor or sublimation pressure, kPa (Liquid); method: Closed cell (Static) method
Mole fraction of hexane	Vapor or sublimation pressure, kPa	uncertainty
.0104	8.652	
.0272	22.61	
.0428	35.09	
.06	48.23	
.0773	61.11	
.0874	68.52	
.0971	75.47	
.106	81.64	
.1168	88.93	
.1487	110.6	
.2029	142.8	
.2831	181.4	

System: heptane + 1-methyl-1-octylpyrrolidinium bis(trifluoromethylsulfonyl)amide; phases: Liquid, Gas
Fixed: Mole fraction of heptane = 0
Property: Activity coefficient of heptane (Liquid); method: Chromatography
Temperature, K	Activity coefficient of heptane	uncertainty
303.1	6.9	
313.15	6.73	
323.09	6.54	
333.13	6.36	

System: octane + 1-methyl-1-octylpyrrolidinium bis(trifluoromethylsulfonyl)amide; phases: Liquid, Gas
Fixed: Mole fraction of octane = 0
Property: Activity coefficient of octane (Liquid); method: Chromatography
Temperature, K	Activity coefficient of octane	uncertainty
303.1	8.78	
313.15	8.55	
323.09	8.39	
333.13	8.22	

System: octane + 1-methyl-1-octylpyrrolidinium bis(trifluoromethylsulfonyl)amide; phases: Liquid, Gas
Fixed: Temperature, K = 363.15
Property: Vapor or sublimation pressure, kPa (Liquid); method: Closed cell (Static) method
Mole fraction of octane	Vapor or sublimation pressure, kPa	uncertainty
.01	2.262	
.0171	4.019	
.0273	6.425	
.0366	8.479	
.047	10.76	
.0571	12.89	
.066	14.73	
.0743	16.43	
.0872	18.91	
.1145	23.63	
.1667	30.85	

System: 1-pentene + 1-methyl-1-octylpyrrolidinium bis(trifluoromethylsulfonyl)amide; phases: Liquid, Gas
Fixed: Mole fraction of 1-pentene = 0
Property: Activity coefficient of 1-pentene (Liquid); method: Chromatography
Temperature, K	Activity coefficient of 1-pentene	uncertainty
303.14	2.5	
313.13	2.43	
323.11	2.33	
343.11	2.25	

System: 1-hexene + 1-methyl-1-octylpyrrolidinium bis(trifluoromethylsulfonyl)amide; phases: Liquid, Gas
Fixed: Mole fraction of 1-hexene = 0
Property: Activity coefficient of 1-hexene (Liquid); method: Chromatography
Temperature, K	Activity coefficient of 1-hexene	uncertainty
303.14	3.11	
313.13	3.29	
323.11	3.22	
343.11	3.15	

System: 1-hexene + 1-methyl-1-octylpyrrolidinium bis(trifluoromethylsulfonyl)amide; phases: Liquid, Gas
Fixed: Temperature, K = 363.15
Property: Vapor or sublimation pressure, kPa (Liquid); method: Closed cell (Static) method
Mole fraction of 1-hexene	Vapor or sublimation pressure, kPa	uncertainty
.0114	7.77	
.027	17.76	
.045	29	
.0669	43.28	
.0809	52.22	
.093	59.54	
.104	66.36	
.1144	72.45	
.127	79.86	
.1807	110.6	
.2453	145.5	
.3426	190.2	

System: 1-heptene + 1-methyl-1-octylpyrrolidinium bis(trifluoromethylsulfonyl)amide; phases: Liquid, Gas
Fixed: Mole fraction of 1-heptene = 0
Property: Activity coefficient of 1-heptene (Liquid); method: Chromatography
Temperature, K	Activity coefficient of 1-heptene	uncertainty
313.11	4.37	
323.14	4.22	
333.17	4.1	
343.21	4.02	

System: 1-octene + 1-methyl-1-octylpyrrolidinium bis(trifluoromethylsulfonyl)amide; phases: Liquid, Gas
Fixed: Mole fraction of 1-octene = 0
Property: Activity coefficient of 1-octene (Liquid); method: Chromatography
Temperature, K	Activity coefficient of 1-octene	uncertainty
313.11	5.53	
323.14	5.4	
333.17	5.27	
343.21	5.21	

System: 1-octene + 1-methyl-1-octylpyrrolidinium bis(trifluoromethylsulfonyl)amide; phases: Liquid, Gas
Fixed: Temperature, K = 363.15
Property: Vapor or sublimation pressure, kPa (Liquid); method: Closed cell (Static) method
Mole fraction of 1-octene	Vapor or sublimation pressure, kPa	uncertainty
.0094	1.889	
.0192	3.836	
.0312	6.06	
.0434	8.235	
.053	9.909	
.0643	11.93	
.0748	13.72	
.0845	15.21	
.1013	17.82	
.1303	21.98	
.1838	28.81	
.2737	37.44	

System: pentane + 1-hexyl-1-methylpyrrolidinium bis(trifluoromethanesulfonyl)imide; phases: Liquid, Gas
Fixed: Mole fraction of pentane = 0
Property: Activity coefficient of pentane (Liquid); method: Chromatography
Temperature, K	Activity coefficient of pentane	uncertainty
303.15	5.66	
313.19	5.31	
323.16	4.8	
333.14	4.51	

System: pentane + 1-hexyl-1-methylpyrrolidinium bis(trifluoromethanesulfonyl)imide; phases: Liquid
Fixed: Temperature, K = 363.15
Fixed: Pressure, kPa = 2135
Property: Excess molar enthalpy (molar enthalpy of mixing), kJ/mol (Liquid); method: Flow calorimetry
Mole fraction of pentane	Excess molar enthalpy (molar enthalpy of mixing), kJ/mol	uncertainty
.0699	1.11	.0111
.1337	.2177	.002177
.1921	.2936	.002936
.2952	.4015	.004015
.341	.4382	.004382
.4229	.4035	.004035
.4942	.3551	.003551
.5568	.3101	.003101
.6615	.2342	.002342
.7457	.175	.00175
.8147	.1296	.001296
.8979	.0781	.000781
.9635	.0333	.000333

System: hexane + 1-hexyl-1-methylpyrrolidinium bis(trifluoromethanesulfonyl)imide; phases: Liquid, Gas
Fixed: Mole fraction of hexane = 0
Property: Activity coefficient of hexane (Liquid); method: Chromatography
Temperature, K	Activity coefficient of hexane	uncertainty
303.15	8.4	
313.19	7.85	
323.16	7.21	
333.14	6.57	

System: hexane + 1-hexyl-1-methylpyrrolidinium bis(trifluoromethanesulfonyl)imide; phases: Liquid, Gas
Fixed: Temperature, K = 363.15
Property: Vapor or sublimation pressure, kPa (Liquid); method: Closed cell (Static) method
Mole fraction of hexane	Vapor or sublimation pressure, kPa	uncertainty
.0144	15.63	
.0295	31.14	
.0448	47.01	
.0593	62.27	
.072	75.19	
.0858	88.54	
.0982	100.3	
.1099	110.7	
.1179	117.7	
.1457	141	
.1913	172.8	

System: hexane + 1-hexyl-1-methylpyrrolidinium bis(trifluoromethanesulfonyl)imide; phases: Liquid
Fixed: Temperature, K = 363.15
Fixed: Pressure, kPa = 1720
Property: Excess molar enthalpy (molar enthalpy of mixing), kJ/mol (Liquid); method: Flow calorimetry
Mole fraction of hexane	Excess molar enthalpy (molar enthalpy of mixing), kJ/mol	uncertainty
.067	.1233	.001233
.1285	.2403	.002403
.1852	.3376	.003376
.2375	.4204	.004204
.2859	.479	.00479
.3309	.4871	.004871
.483	.3867	.003867
.6514	.2633	.002633

System: heptane + 1-hexyl-1-methylpyrrolidinium bis(trifluoromethanesulfonyl)imide; phases: Liquid, Gas
Fixed: Mole fraction of heptane = 0
Property: Activity coefficient of heptane (Liquid); method: Chromatography
Temperature, K	Activity coefficient of heptane	uncertainty
303.16	11.37	
313.16	10.76	
323.15	10.26	
333.12	9.89	

System: octane + 1-hexyl-1-methylpyrrolidinium bis(trifluoromethanesulfonyl)imide; phases: Liquid, Gas
Fixed: Mole fraction of octane = 0
Property: Activity coefficient of octane (Liquid); method: Chromatography
Temperature, K	Activity coefficient of octane	uncertainty
303.16	15.75	
313.16	14.71	
323.15	13.93	
333.12	13.3	

System: octane + 1-hexyl-1-methylpyrrolidinium bis(trifluoromethanesulfonyl)imide; phases: Liquid, Gas
Fixed: Temperature, K = 363.15
Property: Vapor or sublimation pressure, kPa (Liquid); method: Closed cell (Static) method
Mole fraction of octane	Vapor or sublimation pressure, kPa	uncertainty
.007	2.534	
.013	4.756	
.0194	6.936	
.025	8.888	
.0311	11.01	
.0378	13.09	
.0436	14.91	
.0496	16.91	
.0611	20.26	
.0827	26.05	

System: nonane + 1-hexyl-1-methylpyrrolidinium bis(trifluoromethanesulfonyl)imide; phases: Liquid, Gas
Fixed: Mole fraction of nonane = 0
Property: Activity coefficient of nonane (Liquid); method: Chromatography
Temperature, K	Activity coefficient of nonane	uncertainty
303.13	21.35	
313.17	19.95	
323.16	18.81	
333.16	18.11	
343.13	17.13	

System: decane + 1-hexyl-1-methylpyrrolidinium bis(trifluoromethanesulfonyl)imide; phases: Liquid, Gas
Fixed: Mole fraction of decane = 0
Property: Activity coefficient of decane (Liquid); method: Chromatography
Temperature, K	Activity coefficient of decane	uncertainty
303.13	28.11	
313.17	26.98	
323.16	25.14	
333.16	24.3	
343.13	23.01	

System: decane + 1-hexyl-1-methylpyrrolidinium bis(trifluoromethanesulfonyl)imide; phases: Liquid, Gas
Fixed: Temperature, K = 363.15
Property: Vapor or sublimation pressure, kPa (Liquid); method: Closed cell (Static) method
Mole fraction of decane	Vapor or sublimation pressure, kPa	uncertainty
.005	.628	
.01	1.249	
.0149	1.818	
.0197	2.375	
.0246	2.899	
.0294	3.412	
.0343	3.869	
.0393	4.319	
.0489	5.177	

System: octane + 1-octene + 1-methyl-1-octylpyrrolidinium bis(trifluoromethylsulfonyl)amide; phases: Gas, Liquid
Fixed: Temperature, K = 342.45
Fixed: Mole fraction of 1-methyl-1-octylpyrrolidinium bis(trifluoromethylsulfonyl)amide = .9
Property: Mole fraction of 1-octene (Gas); method: Chromatography
Mole fraction of 1-octene	Mole fraction of 1-octene	uncertainty
.0046	.0475	
.00907	.0921	
.01453	.1418	
.01816	.1757	
.02677	.2576	
.03545	.3442	
.04531	.4509	
.05274	.539	
.06362	.6508	
.0726	.7696	
.08134	.8796	

System: 1-hexene + 1-butyl-1-methylpyrrolidinium bis[(trifluoromethyl)sulfonyl]imide; phases: Liquid
Fixed: Temperature, K = 363.15
Fixed: Pressure, kPa = 2239
Property: Excess molar enthalpy (molar enthalpy of mixing), kJ/mol (Liquid); method: Flow calorimetry
Mole fraction of 1-hexene	Excess molar enthalpy (molar enthalpy of mixing), kJ/mol	uncertainty
.0587	.1391	.001391
.1135	.2677	.002677
.1647	.3494	.003494
.2579	.435	.00435
.3781	.4592	.004592
.4477	.4128	.004128
.5104	.3614	.003614
.6185	.2786	.002786
.7086	.2229	.002229
.7849	.1669	.001669
.8795	.08491	.0008491

System: 1-heptene + 1-butyl-1-methylpyrrolidinium bis[(trifluoromethyl)sulfonyl]imide; phases: Liquid
Fixed: Temperature, K = 413.15
Fixed: Pressure, kPa = 2239
Property: Excess molar enthalpy (molar enthalpy of mixing), kJ/mol (Liquid); method: Flow calorimetry
Mole fraction of 1-heptene	Excess molar enthalpy (molar enthalpy of mixing), kJ/mol	uncertainty
.0525	.1348	.001348
.1022	.2597	.002597
.1492	.3758	.003758
.2762	.4709	.004709
.3509	.4186	.004186
.4189	.3819	.003819
.481	.3378	.003378
.5904	.2604	.002604
.6838	.2098	.002098
.7643	.1465	.001465
.8664	.08518	.0008518
.9511	.03813	.0003813
