Measured thermophysical data. Modulating the aggregation behavior of aqueous sodium dodecylsulphate (SDS) with addition of trisubstituted imidazolium based ionic liquid 1-butyl-2,3-dimethylimidazolium tetrafluoroborate [bdmim][BF4]a
Source: Fluid Phase Equilib., 2014, 10.1016/j.fluid.2014.04.027
Compound 1: sodium dodecyl sulfate, C12H25NaO4S, purity 99%
Compound 2: 1-butyl-2,3-dimethylimidazolium tetrafluoroborate, C9H17BF4N2, purity 99.8%
Compound 3: deuterium oxide, D2O, purity 99.9%
Compound 4: pyrene, C16H10, purity 99.9%
Compound 5: cetylpyridinium chloride, C21H38ClN, purity 99%
Compound 6: methanol, CH4O, purity 99%
Compound 7: water, H2O, purity 99.8%

System: sodium dodecyl sulfate + water + 1-butyl-2,3-dimethylimidazolium tetrafluoroborate; phases: Liquid
Fixed: Pressure, kPa = 100
Property: Electrical conductivity, S/m (Liquid); method: Alternating current cell with electrodes
Temperature, K	Mass fraction of 1-butyl-2,3-dimethylimidazolium tetrafluoroborate	Mole fraction of sodium dodecyl sulfate	Electrical conductivity, S/m	uncertainty
298.15	0	.00014274	.04139	.00001
298.15	0	.00013595	.04006	.00001
298.15	0	.00012978	.03879	.00001
298.15	0	.00012414	.03751	.00001
298.15	0	.00011897	.03648	.00001
298.15	0	.00011422	.03528	.00001
298.15	0	.00010983	.03448	.00001
298.15	0	.00010576	.03349	.00001
298.15	0	.00010199	.03268	.00001
298.15	0	.00009847	.03174	.00001
298.15	0	.00009519	.03108	.00001
298.15	0	.00009213	.03045	.00001
298.15	0	.00008925	.02967	.00001
298.15	0	.00008655	.02911	.00001
298.15	0	.000084	.02841	.00001
298.15	0	.0000816	.0278	.00001
298.15	0	.0000772	.0269	.00001
298.15	0	.00007324	.02606	.00001
298.15	0	.00006967	.02522	.00001
298.15	0	.00006643	.02455	.00001
298.15	0	.00006348	.02398	.00001
298.15	.0001	.00014928	.04551	.00001
298.15	.0001	.00014431	.04443	.00001
298.15	.0001	.00013965	.04338	.00001
298.15	.0001	.00013529	.04232	.00001
298.15	.0001	.00012733	.04077	.00001
298.15	.0001	.00012026	.0392	.00001
298.15	.0001	.00011393	.03779	.00001
298.15	.0001	.00010823	.03648	.00001
298.15	.0001	.00010308	.0354	.00001
298.15	.0001	.00009839	.03431	.00001
298.15	.0001	.00009412	.03337	.00001
298.15	.0001	.0000902	.03249	.00001
298.15	.0001	.00008659	.03162	.00001
298.15	.0001	.00008326	.03088	.00001
298.15	.0001	.00008018	.03022	.00001
298.15	.0001	.00007731	.02963	.00001
298.15	.0001	.00007465	.02905	.00001
298.15	.0001	.00007216	.02835	.00001
298.15	.0001	.00006983	.02795	.00001
298.15	.0001	.00006765	.02736	.00001
298.15	.0001	.0000656	.02689	.00001
298.15	.0001	.00006367	.02647	.00001
298.15	.0001	.00006185	.026	.00001
298.15	.0003	.0001552	.05039	.00001
298.15	.0003	.00014985	.04927	.00001
298.15	.0003	.00014486	.04826	.00001
298.15	.0003	.00014019	.04736	.00001
298.15	.0003	.00013581	.04639	.00001
298.15	.0003	.00012782	.0446	.00001
298.15	.0003	.00012072	.04311	.00001
298.15	.0003	.00011437	.04177	.00001
298.15	.0003	.00010865	.04048	.00001
298.15	.0003	.00010348	.03936	.00001
298.15	.0003	.00009877	.03854	.00001
298.15	.0003	.00009448	.0376	.00001
298.15	.0003	.00009054	.03673	.00001
298.15	.0003	.00008692	.03585	.00001
298.15	.0003	.00008358	.03506	.00001
298.15	.0003	.00008048	.03446	.00001
298.15	.0003	.00007761	.03377	.00001
298.15	.0003	.00007493	.03323	.00001
298.15	.0003	.00007243	.03264	.00001
298.15	.0003	.0000701	.03209	.00001
298.15	.0003	.00006791	.03157	.00001
298.15	.0003	.00006585	.03108	.00001
298.15	.0003	.00006391	.03072	.00001
298.15	.0003	.00006209	.0303	.00001
298.15	.0005	.00016039	.05431	.00001
298.15	.0005	.00015466	.05334	.00001
298.15	.0005	.00014933	.05221	.00001
298.15	.0005	.00014435	.05125	.00001
298.15	.0005	.0001397	.05023	.00001
298.15	.0005	.00013533	.04914	.00001
298.15	.0005	.00012737	.04735	.00001
298.15	.0005	.0001203	.04587	.00001
298.15	.0005	.00011397	.04456	.00001
298.15	.0005	.00010827	.04328	.00001
298.15	.0005	.00010311	.04229	.00001
298.15	.0005	.00009843	.0413	.00001
298.15	.0005	.00009415	.04021	.00001
298.15	.0005	.00009023	.03947	.00001
298.15	.0005	.00008662	.03872	.00001
298.15	.0005	.00008329	.03793	.00001
298.15	.0005	.0000802	.03726	.00001
298.15	.0005	.00007734	.03673	.00001
298.15	.0005	.00007467	.03623	.00001
298.15	.0005	.00007218	.03559	.00001
298.15	.0005	.00006985	.03518	.00001
298.15	.0005	.00006767	.03456	.00001
298.15	.0005	.00006562	.03419	.00001
298.15	.0005	.00006369	.03375	.00001
298.15	.0005	.00006187	.03342	.00001
298.15	.0007	.00016641	.06022	.00001
298.15	.0007	.00016025	.0591	.00001
298.15	.0007	.00015453	.05789	.00001
298.15	.0007	.0001492	.05694	.00001
298.15	.0007	.00014423	.05587	.00001
298.15	.0007	.00013957	.0549	.00001
298.15	.0007	.00013521	.05408	.00001
298.15	.0007	.00012726	.05252	.00001
298.15	.0007	.00012019	.05101	.00001
298.15	.0007	.00011387	.04989	.00001
298.15	.0007	.00010817	.04869	.00001
298.15	.0007	.00010302	.04777	.00001
298.15	.0007	.00009834	.04668	.00001
298.15	.0007	.00009407	.04591	.00001
298.15	.0007	.00009015	.04526	.00001
298.15	.0007	.00008654	.04455	.00001
298.15	.0007	.00008321	.04383	.00001
298.15	.0007	.00008013	.04329	.00001
298.15	.0007	.00007727	.04273	.00001
298.15	.0007	.0000746	.04216	.00001
298.15	.0007	.00007212	.04168	.00001
298.15	.0007	.00006979	.04132	.00001
298.15	.0007	.00006761	.04087	.00001
298.15	.0007	.00006556	.04051	.00001
298.15	.0007	.00006363	.04007	.00001
298.15	.0007	.00006182	.03961	.00001
298.15	.001	.00017416	.068	.00001
298.15	.001	.00016746	.06673	.00001
298.15	.001	.00016126	.06572	.00001
298.15	.001	.0001555	.06471	.00001
298.15	.001	.00015014	.06371	.00001
298.15	.001	.00014514	.06286	.00001
298.15	.001	.00014046	.06209	.00001
298.15	.001	.00013607	.06141	.00001
298.15	.001	.00012806	.05996	.00001
298.15	.001	.00012095	.05872	.00001
298.15	.001	.00011458	.05765	.00001
298.15	.001	.00010886	.05663	.00001
298.15	.001	.00010367	.05575	.00001
298.15	.001	.00009896	.05497	.00001
298.15	.001	.00009466	.0542	.00001
298.15	.001	.00009072	.05358	.00001
298.15	.001	.00008709	.05288	.00001
298.15	.001	.00008374	.05237	.00001
298.15	.001	.00008064	.0518	.00001
298.15	.001	.00007776	.0514	.00001
298.15	.001	.00007508	.05091	.00001
298.15	.001	.00007257	.05039	.00001
298.15	.001	.00007023	.04998	.00001
298.15	.001	.00006804	.04968	.00001
298.15	.001	.00006598	.04936	.00001
298.15	.001	.00006404	.04896	.00001
298.15	.001	.00006221	.04866	.00001
308.15	0	.00015024	.04548	.00001
308.15	0	.00014274	.04393	.00001
308.15	0	.00013595	.04228	.00001
308.15	0	.00012978	.04085	.00001
308.15	0	.00012414	.03943	.00001
308.15	0	.00011897	.03822	.00001
308.15	0	.00011422	.03698	.00001
308.15	0	.00010983	.03591	.00001
308.15	0	.00010576	.03486	.00001
308.15	0	.00010199	.03387	.00001
308.15	0	.00009847	.03316	.00001
308.15	0	.00009519	.03228	.00001
308.15	0	.00009213	.03168	.00001
308.15	0	.00008925	.03105	.00001
308.15	0	.00008655	.03036	.00001
308.15	0	.000084	.02981	.00001
308.15	0	.0000816	.02921	.00001
308.15	0	.0000772	.02821	.00001
308.15	0	.00007324	.02732	.00001
308.15	0	.00006967	.0264	.00001
308.15	0	.00006643	.02554	.00001
308.15	0	.00006348	.02491	.00001
308.15	.0001	.00015461	.04877	.00001
308.15	.0001	.00014928	.04765	.00001
308.15	.0001	.00014431	.04659	.00001
308.15	.0001	.00013965	.04564	.00001
308.15	.0001	.00013529	.04459	.00001
308.15	.0001	.00012733	.0428	.00001
308.15	.0001	.00012026	.04114	.00001
308.15	.0001	.00011393	.03955	.00001
308.15	.0001	.00010823	.03834	.00001
308.15	.0001	.00010308	.03696	.00001
308.15	.0001	.00009839	.03601	.00001
308.15	.0001	.00009412	.03491	.00001
308.15	.0001	.0000902	.034	.00001
308.15	.0001	.00008659	.03316	.00001
308.15	.0001	.00008326	.03235	.00001
308.15	.0001	.00008018	.03159	.00001
308.15	.0001	.00007731	.03088	.00001
308.15	.0001	.00007465	.03024	.00001
308.15	.0001	.00007216	.02965	.00001
308.15	.0001	.00006983	.02911	.00001
308.15	.0001	.00006765	.02849	.00001
308.15	.0001	.0000656	.02801	.00001
308.15	.0001	.00006367	.02756	.00001
308.15	.0001	.00006185	.02713	.00001
308.15	.0003	.00016095	.05351	.00001
308.15	.0003	.0001552	.05249	.00001
308.15	.0003	.00014985	.05139	.00001
308.15	.0003	.00014486	.05034	.00001
308.15	.0003	.00014019	.04912	.00001
308.15	.0003	.00013581	.04826	.00001
308.15	.0003	.00012782	.0465	.00001
308.15	.0003	.00012072	.04487	.00001
308.15	.0003	.00011437	.04348	.00001
308.15	.0003	.00010865	.04229	.00001
308.15	.0003	.00010348	.04106	.00001
308.15	.0003	.00009877	.03977	.00001
308.15	.0003	.00009448	.03889	.00001
308.15	.0003	.00009054	.03789	.00001
308.15	.0003	.00008692	.03707	.00001
308.15	.0003	.00008358	.03631	.00001
308.15	.0003	.00008048	.03555	.00001
308.15	.0003	.00007761	.03487	.00001
308.15	.0003	.00007493	.03431	.00001
308.15	.0003	.00007243	.03367	.00001
308.15	.0003	.0000701	.03315	.00001
308.15	.0003	.00006791	.0326	.00001
308.15	.0003	.00006585	.03222	.00001
308.15	.0003	.00006391	.03178	.00001
308.15	.0003	.00006209	.03137	.00001
308.15	.0005	.00016656	.05871	.00001
308.15	.0005	.00016039	.05742	.00001
308.15	.0005	.00015466	.05645	.00001
308.15	.0005	.00014933	.05536	.00001
308.15	.0005	.00014435	.05428	.00001
308.15	.0005	.0001397	.05333	.00001
308.15	.0005	.00013533	.05253	.00001
308.15	.0005	.00012737	.05076	.00001
308.15	.0005	.0001203	.04931	.00001
308.15	.0005	.00011397	.04797	.00001
308.15	.0005	.00010827	.04671	.00001
308.15	.0005	.00010311	.04573	.00001
308.15	.0005	.00009843	.04471	.00001
308.15	.0005	.00009415	.04383	.00001
308.15	.0005	.00009023	.04291	.00001
308.15	.0005	.00008662	.04217	.00001
308.15	.0005	.00008329	.0415	.00001
308.15	.0005	.0000802	.04087	.00001
308.15	.0005	.00007734	.04039	.00001
308.15	.0005	.00007467	.03973	.00001
308.15	.0005	.00007218	.03915	.00001
308.15	.0005	.00006985	.03866	.00001
308.15	.0005	.00006767	.0381	.00001
308.15	.0005	.00006562	.03773	.00001
308.15	.0005	.00006369	.03736	.00001
308.15	.0005	.00006187	.03699	.00001
308.15	.0007	.00017307	.06395	.00001
308.15	.0007	.00016641	.06272	.00001
308.15	.0007	.00016025	.06142	.00001
308.15	.0007	.00015453	.06002	.00001
308.15	.0007	.0001492	.05891	.00001
308.15	.0007	.00014423	.05788	.00001
308.15	.0007	.00013957	.05679	.00001
308.15	.0007	.00013521	.05598	.00001
308.15	.0007	.00012726	.05439	.00001
308.15	.0007	.00012019	.05288	.00001
308.15	.0007	.00011387	.05154	.00001
308.15	.0007	.00010817	.0503	.00001
308.15	.0007	.00010302	.04936	.00001
308.15	.0007	.00009834	.04828	.00001
308.15	.0007	.00009407	.04731	.00001
308.15	.0007	.00009015	.04658	.00001
308.15	.0007	.00008654	.0457	.00001
308.15	.0007	.00008321	.04511	.00001
308.15	.0007	.00008013	.04445	.00001
308.15	.0007	.00007727	.04383	.00001
308.15	.0007	.0000746	.04319	.00001
308.15	.0007	.00007212	.04261	.00001
308.15	.0007	.00006979	.04212	.00001
308.15	.0007	.00006761	.04166	.00001
308.15	.0007	.00006556	.04124	.00001
308.15	.0007	.00006363	.04089	.00001
308.15	.0007	.00006182	.04052	.00001
308.15	.001	.00018141	.07184	.00001
308.15	.001	.00017416	.07081	.00001
308.15	.001	.00016746	.06939	.00001
308.15	.001	.00016126	.06821	.00001
308.15	.001	.0001555	.06694	.00001
308.15	.001	.00015014	.06605	.00001
308.15	.001	.00014514	.06477	.00001
308.15	.001	.00014046	.06412	.00001
308.15	.001	.00013607	.06309	.00001
308.15	.001	.00012806	.06149	.00001
308.15	.001	.00012095	.0605	.00001
308.15	.001	.00011458	.05906	.00001
308.15	.001	.00010886	.05791	.00001
308.15	.001	.00010367	.05698	.00001
308.15	.001	.00009896	.05623	.00001
308.15	.001	.00009466	.05536	.00001
308.15	.001	.00009072	.0546	.00001
308.15	.001	.00008709	.05384	.00001
308.15	.001	.00008374	.0532	.00001
308.15	.001	.00008064	.05265	.00001
308.15	.001	.00007776	.05205	.00001
308.15	.001	.00007508	.05142	.00001
308.15	.001	.00007257	.05108	.00001
308.15	.001	.00007023	.05067	.00001
308.15	.001	.00006804	.05026	.00001
308.15	.001	.00006598	.0498	.00001
308.15	.001	.00006404	.04941	.00001
308.15	.001	.00006221	.04889	.00001
318.15	0	.00015858	.05198	.00001
318.15	0	.00015024	.04985	.00001
318.15	0	.00014274	.04811	.00001
318.15	0	.00013595	.04651	.00001
318.15	0	.00012978	.04497	.00001
318.15	0	.00012414	.04362	.00001
318.15	0	.00011897	.04243	.00001
318.15	0	.00011422	.04122	.00001
318.15	0	.00010983	.04	.00001
318.15	0	.00010576	.03895	.00001
318.15	0	.00010199	.03799	.00001
318.15	0	.00009847	.03714	.00001
318.15	0	.00009519	.03624	.00001
318.15	0	.00009213	.0355	.00001
318.15	0	.00008925	.03472	.00001
318.15	0	.00008655	.03401	.00001
318.15	0	.000084	.03341	.00001
318.15	0	.0000816	.03291	.00001
318.15	0	.0000772	.03173	.00001
318.15	0	.00007324	.03063	.00001
318.15	0	.00006967	.02978	.00001
318.15	0	.00006643	.02901	.00001
318.15	0	.00006348	.02834	.00001
318.15	.0001	.00016034	.05426	.00001
318.15	.0001	.00015461	.05309	.00001
318.15	.0001	.00014928	.05165	.00001
318.15	.0001	.00014431	.05044	.00001
318.15	.0001	.00013965	.04921	.00001
318.15	.0001	.00013529	.0483	.00001
318.15	.0001	.00012733	.0466	.00001
318.15	.0001	.00012026	.04481	.00001
318.15	.0001	.00011393	.04333	.00001
318.15	.0001	.00010823	.04195	.00001
318.15	.0001	.00010308	.04075	.00001
318.15	.0001	.00009839	.03962	.00001
318.15	.0001	.00009412	.03867	.00001
318.15	.0001	.0000902	.03781	.00001
318.15	.0001	.00008659	.03681	.00001
318.15	.0001	.00008326	.03581	.00001
318.15	.0001	.00008018	.03507	.00001
318.15	.0001	.00007731	.03445	.00001
318.15	.0001	.00007465	.03376	.00001
318.15	.0001	.00007216	.03316	.00001
318.15	.0001	.00006983	.03256	.00001
318.15	.0001	.00006765	.03201	.00001
318.15	.0001	.0000656	.03155	.00001
318.15	.0001	.00006367	.03114	.00001
318.15	.0001	.00006185	.03062	.00001
318.15	.0003	.00016714	.05922	.00001
318.15	.0003	.00016095	.05775	.00001
318.15	.0003	.0001552	.05646	.00001
318.15	.0003	.00014985	.05516	.00001
318.15	.0003	.00014486	.05414	.00001
318.15	.0003	.00014019	.05297	.00001
318.15	.0003	.00013581	.05182	.00001
318.15	.0003	.00012782	.05008	.00001
318.15	.0003	.00012072	.04831	.00001
318.15	.0003	.00011437	.04689	.00001
318.15	.0003	.00010865	.04567	.00001
318.15	.0003	.00010348	.04442	.00001
318.15	.0003	.00009877	.04337	.00001
318.15	.0003	.00009448	.04225	.00001
318.15	.0003	.00009054	.04148	.00001
318.15	.0003	.00008692	.04066	.00001
318.15	.0003	.00008358	.03991	.00001
318.15	.0003	.00008048	.03926	.00001
318.15	.0003	.00007761	.03871	.00001
318.15	.0003	.00007493	.03812	.00001
318.15	.0003	.00007243	.03754	.00001
318.15	.0003	.0000701	.03692	.00001
318.15	.0003	.00006791	.03647	.00001
318.15	.0003	.00006585	.03592	.00001
318.15	.0003	.00006391	.03538	.00001
318.15	.0003	.00006209	.03497	.00001
318.15	.0005	.00017322	.06448	.00001
318.15	.0005	.00016656	.06325	.00001
318.15	.0005	.00016039	.06186	.00001
318.15	.0005	.00015466	.06055	.00001
318.15	.0005	.00014933	.0592	.00001
318.15	.0005	.00014435	.05819	.00001
318.15	.0005	.0001397	.0572	.00001
318.15	.0005	.00013533	.05614	.00001
318.15	.0005	.00012737	.05438	.00001
318.15	.0005	.0001203	.05278	.00001
318.15	.0005	.00011397	.05132	.00001
318.15	.0005	.00010827	.05001	.00001
318.15	.0005	.00010311	.04879	.00001
318.15	.0005	.00009843	.04801	.00001
318.15	.0005	.00009415	.04678	.00001
318.15	.0005	.00009023	.04606	.00001
318.15	.0005	.00008662	.04527	.00001
318.15	.0005	.00008329	.04448	.00001
318.15	.0005	.0000802	.04379	.00001
318.15	.0005	.00007734	.04306	.00001
318.15	.0005	.00007467	.04231	.00001
318.15	.0005	.00007218	.04186	.00001
318.15	.0005	.00006985	.04109	.00001
318.15	.0005	.00006767	.04064	.00001
318.15	.0005	.00006562	.03994	.00001
318.15	.0005	.00006369	.03942	.00001
318.15	.0005	.00006187	.03877	.00001
318.15	.0007	.00018028	.07007	.00001
318.15	.0007	.00017307	.06833	.00001
318.15	.0007	.00016641	.06695	.00001
318.15	.0007	.00016025	.06545	.00001
318.15	.0007	.00015453	.064	.00001
318.15	.0007	.0001492	.06281	.00001
318.15	.0007	.00014423	.06165	.00001
318.15	.0007	.00013957	.06062	.00001
318.15	.0007	.00013521	.05983	.00001
318.15	.0007	.00012726	.0579	.00001
318.15	.0007	.00012019	.05634	.00001
318.15	.0007	.00011387	.05495	.00001
318.15	.0007	.00010817	.05381	.00001
318.15	.0007	.00010302	.05268	.00001
318.15	.0007	.00009834	.05153	.00001
318.15	.0007	.00009407	.05068	.00001
318.15	.0007	.00009015	.04995	.00001
318.15	.0007	.00008654	.04929	.00001
318.15	.0007	.00008321	.04829	.00001
318.15	.0007	.00008013	.04784	.00001
318.15	.0007	.00007727	.04694	.00001
318.15	.0007	.0000746	.04635	.00001
318.15	.0007	.00007212	.04563	.00001
318.15	.0007	.00006979	.04501	.00001
318.15	.0007	.00006761	.04447	.00001
318.15	.0007	.00006556	.04386	.00001
318.15	.0007	.00006363	.04349	.00001
318.15	.0007	.00006182	.04298	.00001
318.15	.001	.0001893	.0777	.00001
318.15	.001	.00018141	.07621	.00001
318.15	.001	.00017416	.07462	.00001
318.15	.001	.00016746	.07334	.00001
318.15	.001	.00016126	.07189	.00001
318.15	.001	.0001555	.07067	.00001
318.15	.001	.00015014	.06954	.00001
318.15	.001	.00014514	.06852	.00001
318.15	.001	.00014046	.06755	.00001
318.15	.001	.00013607	.06663	.00001
318.15	.001	.00012806	.06475	.00001
318.15	.001	.00012095	.06306	.00001
318.15	.001	.00011458	.06164	.00001
318.15	.001	.00010886	.06037	.00001
318.15	.001	.00010367	.05928	.00001
318.15	.001	.00009896	.05832	.00001
318.15	.001	.00009466	.05751	.00001
318.15	.001	.00009072	.05662	.00001
318.15	.001	.00008709	.05593	.00001
318.15	.001	.00008374	.05529	.00001
318.15	.001	.00008064	.05463	.00001
318.15	.001	.00007776	.05404	.00001
318.15	.001	.00007508	.05338	.00001
318.15	.001	.00007257	.05289	.00001
318.15	.001	.00007023	.0524	.00001
318.15	.001	.00006804	.05202	.00001
318.15	.001	.00006598	.05165	.00001
318.15	.001	.00006404	.0512	.00001
318.15	.001	.00006221	.05093	.00001

System: sodium dodecyl sulfate + water; phases: Liquid
Property: Electrical conductivity, S/m (Liquid); method: Alternating current cell with electrodes
Temperature, K	Mole fraction of sodium dodecyl sulfate	Pressure, kPa	Electrical conductivity, S/m	uncertainty
298.15	.00014274	100	.04139	.00001
298.15	.00013595	100	.04006	.00001
298.15	.00012978	100	.03879	.00001
298.15	.00012414	100	.03751	.00001
298.15	.00011897	100	.03648	.00001
298.15	.00011422	100	.03528	.00001
298.15	.00010983	100	.03448	.00001
298.15	.00010576	100	.03349	.00001
298.15	.00010199	100	.03268	.00001
298.15	.00009847	100	.03174	.00001
298.15	.00009519	100	.03108	.00001
298.15	.00009213	100	.03045	.00001
298.15	.00008925	100	.02967	.00001
298.15	.00008655	100	.02911	.00001
298.15	.000084	100	.02841	.00001
298.15	.0000816	100	.0278	.00001
298.15	.0000772	100	.0269	.00001
298.15	.00007324	100	.02606	.00001
298.15	.00006967	100	.02522	.00001
298.15	.00006643	100	.02455	.00001
298.15	.00006348	100	.02398	.00001
308.15	.00015024	100	.04548	.00001
308.15	.00014274	100	.04393	.00001
308.15	.00013595	100	.04228	.00001
308.15	.00012978	100	.04085	.00001
308.15	.00012414	100	.03943	.00001
308.15	.00011897	100	.03822	.00001
308.15	.00011422	100	.03698	.00001
308.15	.00010983	100	.03591	.00001
308.15	.00010576	100	.03486	.00001
308.15	.00010199	100	.03387	.00001
308.15	.00009847	100	.03316	.00001
308.15	.00009519	100	.03228	.00001
308.15	.00009213	100	.03168	.00001
308.15	.00008925	100	.03105	.00001
308.15	.00008655	100	.03036	.00001
308.15	.000084	100	.02981	.00001
308.15	.0000816	100	.02921	.00001
308.15	.0000772	100	.02821	.00001
308.15	.00007324	100	.02732	.00001
308.15	.00006967	100	.0264	.00001
308.15	.00006643	100	.02554	.00001
308.15	.00006348	100	.02491	.00001
318.15	.00015858	100	.05198	.00001
318.15	.00015024	100	.04985	.00001
318.15	.00014274	100	.04811	.00001
318.15	.00013595	100	.04651	.00001
318.15	.00012978	100	.04497	.00001
318.15	.00012414	100	.04362	.00001
318.15	.00011897	100	.04243	.00001
318.15	.00011422	100	.04122	.00001
318.15	.00010983	100	.04	.00001
318.15	.00010576	100	.03895	.00001
318.15	.00010199	100	.03799	.00001
318.15	.00009847	100	.03714	.00001
318.15	.00009519	100	.03624	.00001
318.15	.00009213	100	.0355	.00001
318.15	.00008925	100	.03472	.00001
318.15	.00008655	100	.03401	.00001
318.15	.000084	100	.03341	.00001
318.15	.0000816	100	.03291	.00001
318.15	.0000772	100	.03173	.00001
318.15	.00007324	100	.03063	.00001
318.15	.00006967	100	.02978	.00001
318.15	.00006643	100	.02901	.00001
318.15	.00006348	100	.02834	.00001
