Measured thermophysical data. Speeds of sound, isentropic compressibilities and refractive indices for some binary mixtures of nitromethane with chloroalkane at temperatures from 298.15 to 318.15 K. Comparison with theories
Source: Fluid Phase Equilib., 2015, 10.1016/j.fluid.2014.10.004
Compound 1: nitromethane, CH3NO2, purity 98.7%
Compound 2: 1,1,2,2-tetrachloroethane, C2H2Cl4, purity 98%
Compound 3: 1,1,1-trichloroethane, C2H3Cl3, purity 99%
Compound 4: trichloromethane, CHCl3, purity 99%
Compound 5: 1,2-dichloroethane, C2H4Cl2, purity 99.8%
Compound 6: 1,3-dichloropropane, C3H6Cl2, purity 99.6%
Compound 7: 1,4-dichlorobutane, C4H8Cl2, purity 99.8%
Compound 8: 1-chlorobutane, C4H9Cl, purity 99.6%
Compound 9: 1-chloropentane, C5H11Cl, purity 99.8%

System: nitromethane; phases: Liquid
Property: Speed of sound, m/s (Liquid); method: Sing-around technique in a fixed-path interferometer
Temperature, K	Pressure, kPa	Speed of sound, m/s	uncertainty
298.15	101.3	1321.33	.5
308.15	101.3	1281.87	.5
318.15	101.3	1242.45	.5
298.15	101.3	1321.16	.5
308.15	101.3	1281.75	.5
318.15	101.3	1242.47	.5
298.15	101.3	1321.62	.5
308.15	101.3	1281.9	.5
318.15	101.3	1242.49	.5
298.15	101.3	1321.26	.5
308.15	101.3	1281.77	.5
318.15	101.3	1242.39	.5
298.15	101.3	1321.18	.5
298.15	101.3	1321.2	.5
308.15	101.3	1281.78	.5
318.15	101.3	1242.46	.5
298.15	101.3	1321.49	.5
318.15	101.3	1242.5	.5
298.15	101.3	1321.5	.5
308.15	101.3	1282.12	.5
318.15	101.3	1242.76	.5
298.15	101.3	1321.74	.5
308.15	101.3	1282.03	.5
318.15	101.3	1242.6	.5

System: nitromethane; phases: Liquid
Fixed: Pressure, kPa = 101.325
Property: Refractive index (Na D-line) (Liquid); method: Standard Abbe refractometry
Temperature, K	Refractive index (Na D-line)	uncertainty
298.15	1.37946	.00001
308.15	1.37472	.00001
318.15	1.36996	.00001
298.15	1.37949	.00001
308.15	1.37473	.00001
318.15	1.36995	.00001
298.15	1.37951	.00001
308.15	1.37501	.00001
318.15	1.37016	.00001
298.15	1.37952	.00001
308.15	1.37482	.00001
318.15	1.37009	.00001
298.15	1.37948	.00001
308.15	1.3748	.00001
318.15	1.37007	.00001
298.15	1.37955	.00001
318.15	1.37001	.00001
298.15	1.37917	.00001
308.15	1.37447	.00001
318.15	1.3695	.00001
298.15	1.37954	.00001
308.15	1.3747	.00001

System: 1,1,2,2-tetrachloroethane; phases: Liquid
Property: Speed of sound, m/s (Liquid); method: Sing-around technique in a fixed-path interferometer
Temperature, K	Pressure, kPa	Speed of sound, m/s	uncertainty
298.15	101.3	1150.61	.5
308.15	101.3	1118.66	.5
318.15	101.3	1087	.5

System: 1,1,2,2-tetrachloroethane; phases: Liquid
Fixed: Pressure, kPa = 101.325
Property: Refractive index (Na D-line) (Liquid); method: Standard Abbe refractometry
Temperature, K	Refractive index (Na D-line)	uncertainty
298.15	1.49174	.00001
308.15	1.48654	.00001
318.15	1.48137	.00001

System: 1,1,1-trichloroethane; phases: Liquid
Property: Speed of sound, m/s (Liquid); method: Sing-around technique in a fixed-path interferometer
Temperature, K	Pressure, kPa	Speed of sound, m/s	uncertainty
298.15	101.3	962.94	.5
308.15	101.3	928.68	.5
318.15	101.3	894.71	.5

System: 1,1,1-trichloroethane; phases: Liquid
Fixed: Pressure, kPa = 101.325
Property: Refractive index (Na D-line) (Liquid); method: Standard Abbe refractometry
Temperature, K	Refractive index (Na D-line)	uncertainty
298.15	1.43492	.00001
308.15	1.42908	.00001
318.15	1.42311	.00001

System: trichloromethane; phases: Liquid
Property: Speed of sound, m/s (Liquid); method: Sing-around technique in a fixed-path interferometer
Temperature, K	Pressure, kPa	Speed of sound, m/s	uncertainty
298.15	101.3	984.42	.5
308.15	101.3	950.45	.5
318.15	101.3	916.63	.5

System: trichloromethane; phases: Liquid
Fixed: Pressure, kPa = 101.325
Property: Refractive index (Na D-line) (Liquid); method: Standard Abbe refractometry
Temperature, K	Refractive index (Na D-line)	uncertainty
298.15	1.44209	.00001
308.15	1.43598	.00001
318.15	1.42986	.00001

System: 1,2-dichloroethane; phases: Liquid
Property: Speed of sound, m/s (Liquid); method: Sing-around technique in a fixed-path interferometer
Temperature, K	Pressure, kPa	Speed of sound, m/s	uncertainty
298.15	101.3	1194.44	.5
308.15	101.3	1156.06	.5
318.15	101.3	1117.75	.5

System: 1,2-dichloroethane; phases: Liquid
Fixed: Pressure, kPa = 101.325
Property: Refractive index (Na D-line) (Liquid); method: Standard Abbe refractometry
Temperature, K	Refractive index (Na D-line)	uncertainty
298.15	1.44206	.00001
308.15	1.43661	.00001
318.15	1.43109	.00001

System: 1,3-dichloropropane; phases: Liquid
Property: Speed of sound, m/s (Liquid); method: Sing-around technique in a fixed-path interferometer
Temperature, K	Pressure, kPa	Speed of sound, m/s	uncertainty
298.15	101.3	1236.45	.5
308.15	101.3	1199.72	.5
318.15	101.3	1163.22	.5

System: 1,3-dichloropropane; phases: Liquid
Fixed: Pressure, kPa = 101.325
Property: Refractive index (Na D-line) (Liquid); method: Standard Abbe refractometry
Temperature, K	Refractive index (Na D-line)	uncertainty
298.15	1.44617	.00001
308.15	1.44123	.00001
318.15	1.43614	.00001

System: 1,4-dichlorobutane; phases: Liquid
Property: Speed of sound, m/s (Liquid); method: Sing-around technique in a fixed-path interferometer
Temperature, K	Pressure, kPa	Speed of sound, m/s	uncertainty
298.15	101.3	1286.64	.5
308.15	101.3	1251	.5
318.15	101.3	1215.66	.5

System: 1,4-dichlorobutane; phases: Liquid
Fixed: Pressure, kPa = 101.325
Property: Refractive index (Na D-line) (Liquid); method: Standard Abbe refractometry
Temperature, K	Refractive index (Na D-line)	uncertainty
298.15	1.45224	.00001
308.15	1.44756	.00001
318.15	1.44279	.00001

System: 1-chlorobutane; phases: Liquid
Property: Speed of sound, m/s (Liquid); method: Sing-around technique in a fixed-path interferometer
Temperature, K	Pressure, kPa	Speed of sound, m/s	uncertainty
298.15	101.3	1119	.5
308.15	101.3	1078.01	.5
318.15	101.3	1037.26	.5

System: 1-chlorobutane; phases: Liquid
Fixed: Pressure, kPa = 101.325
Property: Refractive index (Na D-line) (Liquid); method: Standard Abbe refractometry
Temperature, K	Refractive index (Na D-line)	uncertainty
298.15	1.39953	.00001
308.15	1.39413	.00001
318.15	1.38851	.00001

System: 1-chloropentane; phases: Liquid
Property: Speed of sound, m/s (Liquid); method: Sing-around technique in a fixed-path interferometer
Temperature, K	Pressure, kPa	Speed of sound, m/s	uncertainty
298.15	101.3	1164.24	.5
308.15	101.3	1124.94	.5
318.15	101.3	1085.84	.5

System: 1-chloropentane; phases: Liquid
Fixed: Pressure, kPa = 101.325
Property: Refractive index (Na D-line) (Liquid); method: Standard Abbe refractometry
Temperature, K	Refractive index (Na D-line)	uncertainty
298.15	1.41015	.00001
308.15	1.40501	.00001
318.15	1.39984	.00001

System: nitromethane + 1,1,2,2-tetrachloroethane; phases: Liquid
Fixed: Pressure, kPa = 101.3
Property: Speed of sound, m/s (Liquid); method: Sing-around technique in a fixed-path interferometer
Temperature, K	Mole fraction of 1,1,2,2-tetrachloroethane	Speed of sound, m/s	uncertainty
298.15	0	1321.16	.5
298.15	.0711	1293.13	.5
298.15	.1888	1257.72	.5
298.15	.2563	1241.8	.5
298.15	.3464	1224.14	.5
298.15	.4341	1209.84	.5
298.15	.5431	1194.83	.5
298.15	.6654	1180.73	.5
298.15	.8211	1165.31	.5
298.15	.9285	1156.21	.5
298.15	1	1150.61	.5
308.15	0	1281.75	.5
308.15	.0711	1254.8	.5
308.15	.1888	1220.83	.5
308.15	.2563	1205.79	.5
308.15	.3464	1189.13	.5
308.15	.4341	1175.43	.5
308.15	.5431	1161.13	.5
308.15	.6654	1147.59	.5
308.15	.8211	1133	.5
308.15	.9285	1124.17	.5
308.15	1	1118.66	.5
318.15	0	1242.47	.5
318.15	.0711	1216.59	.5
318.15	.1888	1184.54	.5
318.15	.2563	1169.96	.5
318.15	.3464	1154.16	.5
318.15	.4341	1141.14	.5
318.15	.5431	1127.57	.5
318.15	.6654	1114.72	.5
318.15	.8211	1100.8	.5
318.15	.9285	1092.32	.5
318.15	1	1087	.5

System: nitromethane + 1,1,2,2-tetrachloroethane; phases: Liquid
Fixed: Pressure, kPa = 101.3
Property: Refractive index (Na D-line) (Liquid); method: Standard Abbe refractometry
Temperature, K	Mole fraction of 1,1,2,2-tetrachloroethane	Refractive index (Na D-line)	uncertainty
298.15	0	1.37946	.00001
298.15	.0711	1.39391	.00001
298.15	.1888	1.41442	.00001
298.15	.2563	1.42485	.00001
298.15	.3464	1.43683	.00001
298.15	.4341	1.44721	.00001
298.15	.5431	1.45848	.00001
298.15	.6654	1.46937	.00001
298.15	.8211	1.48094	.00001
298.15	.9285	1.48772	.00001
298.15	1	1.49174	.00001
308.15	0	1.37472	.00001
308.15	.0711	1.3893	.00001
308.15	.1888	1.4099	.00001
308.15	.2563	1.42025	.00001
308.15	.3464	1.43222	.00001
308.15	.4341	1.4425	.00001
308.15	.5431	1.45366	.00001
308.15	.6654	1.46448	.00001
308.15	.8211	1.47589	.00001
308.15	.9285	1.48262	.00001
308.15	1	1.48654	.00001
318.15	0	1.36996	.00001
318.15	.0711	1.38479	.00001
318.15	.1888	1.40582	.00001
318.15	.2563	1.4162	.00001
318.15	.3464	1.42805	.00001
318.15	.4341	1.43807	.00001
318.15	.5431	1.44909	.00001
318.15	.6654	1.4596	.00001
318.15	.8211	1.47087	.00001
318.15	.9285	1.47752	.00001
318.15	1	1.48137	.00001

System: 1,1,1-trichloroethane + nitromethane; phases: Liquid
Fixed: Pressure, kPa = 101.3
Property: Speed of sound, m/s (Liquid); method: Sing-around technique in a fixed-path interferometer
Temperature, K	Mole fraction of 1,1,1-trichloroethane	Speed of sound, m/s	uncertainty
298.15	0	1321.62	.5
298.15	.0921	1258.59	.5
298.15	.1727	1211.55	.5
298.15	.2614	1166.33	.5
298.15	.3951	1109.82	.5
298.15	.4862	1079.35	.5
298.15	.5904	1048.74	.5
298.15	.7066	1019.26	.5
298.15	.8358	992.76	.5
298.15	.9012	980.43	.5
298.15	1	962.94	.5
308.15	0	1281.9	.5
308.15	.0921	1219.9	.5
308.15	.1727	1173.74	.5
308.15	.2614	1129.14	.5
308.15	.3951	1073.5	.5
308.15	.4862	1043.37	.5
308.15	.5904	1013.22	.5
308.15	.7066	984.72	.5
308.15	.8358	957.84	.5
308.15	.9012	945.74	.5
308.15	1	928.68	.5
318.15	0	1242.49	.5
318.15	.0921	1181.42	.5
318.15	.1727	1135.96	.5
318.15	.2614	1092.1	.5
318.15	.3951	1037.3	.5
318.15	.4862	1007.6	.5
318.15	.5904	977.89	.5
318.15	.7066	949.76	.5
318.15	.8358	923.21	.5
318.15	.9012	911.39	.5
318.15	1	894.71	.5

System: 1,1,1-trichloroethane + nitromethane; phases: Liquid
Fixed: Pressure, kPa = 101.3
Property: Refractive index (Na D-line) (Liquid); method: Standard Abbe refractometry
Temperature, K	Mole fraction of 1,1,1-trichloroethane	Refractive index (Na D-line)	uncertainty
298.15	0	1.37949	.00001
298.15	.0921	1.38777	.00001
298.15	.1727	1.39427	.00001
298.15	.2614	1.4006	.00001
298.15	.3951	1.40894	.00001
298.15	.4862	1.41396	.00001
298.15	.5904	1.41903	.00001
298.15	.7066	1.42412	.00001
298.15	.8358	1.42923	.00001
298.15	.9012	1.43156	.00001
298.15	1	1.43492	.00001
308.15	0	1.37473	.00001
308.15	.0921	1.38231	.00001
308.15	.1727	1.38809	.00001
308.15	.2614	1.39442	.00001
308.15	.3951	1.40268	.00001
308.15	.4862	1.40768	.00001
308.15	.5904	1.41302	.00001
308.15	.7066	1.41834	.00001
308.15	.8358	1.42338	.00001
308.15	.9012	1.42575	.00001
308.15	1	1.42908	.00001
318.15	0	1.36995	.00001
318.15	.0921	1.37702	.00001
318.15	.1727	1.38239	.00001
318.15	.2614	1.3887	.00001
318.15	.3951	1.39695	.00001
318.15	.4862	1.40208	.00001
318.15	.5904	1.40727	.00001
318.15	.7066	1.41249	.00001
318.15	.8358	1.41753	.00001
318.15	.9012	1.41987	.00001
318.15	1	1.42311	.00001

System: trichloromethane + nitromethane; phases: Liquid
Fixed: Pressure, kPa = 101.3
Property: Speed of sound, m/s (Liquid); method: Sing-around technique in a fixed-path interferometer
Temperature, K	Mole fraction of trichloromethane	Speed of sound, m/s	uncertainty
298.15	0	1321.26	.5
298.15	.1197	1253.71	.5
298.15	.1772	1225	.5
298.15	.3007	1171.17	.5
298.15	.4009	1133.58	.5
298.15	.5	1101.27	.5
298.15	.5978	1072.49	.5
298.15	.7194	1041.46	.5
298.15	.8607	1010.38	.5
298.15	.9562	993.45	.5
298.15	1	984.42	.5
308.15	0	1281.77	.5
308.15	.1197	1215.51	.5
308.15	.1772	1187.51	.5
308.15	.3007	1134.6	.5
308.15	.4009	1097.78	.5
308.15	.5	1065.93	.5
308.15	.5978	1037.7	.5
308.15	.7194	1007.06	.5
308.15	.8607	976.31	.5
308.15	.9562	959.49	.5
308.15	1	950.45	.5
318.15	0	1242.39	.5
318.15	.1197	1177.45	.5
318.15	.1772	1150.06	.5
318.15	.3007	1098.13	.5
318.15	.4009	1061.99	.5
318.15	.5	1030.74	.5
318.15	.5978	1002.93	.5
318.15	.7194	972.74	.5
318.15	.8607	942.3	.5
318.15	.9562	925.65	.5
318.15	1	916.63	.5

System: trichloromethane + nitromethane; phases: Liquid
Fixed: Pressure, kPa = 101.3
Property: Refractive index (Na D-line) (Liquid); method: Standard Abbe refractometry
Temperature, K	Mole fraction of trichloromethane	Refractive index (Na D-line)	uncertainty
298.15	0	1.37951	.00001
298.15	.1197	1.39001	.00001
298.15	.1772	1.39474	.00001
298.15	.3007	1.40415	.00001
298.15	.4009	1.41107	.00001
298.15	.5	1.41742	.00001
298.15	.5978	1.42317	.00001
298.15	.7194	1.42971	.00001
298.15	.8607	1.4364	.00001
298.15	.9562	1.44032	.00001
298.15	1	1.44209	.00001
308.15	0	1.37501	.00001
308.15	.1197	1.38474	.00001
308.15	.1772	1.38937	.00001
308.15	.3007	1.39828	.00001
308.15	.4009	1.40509	.00001
308.15	.5	1.41126	.00001
308.15	.5978	1.41698	.00001
308.15	.7194	1.42362	.00001
308.15	.8607	1.43035	.00001
308.15	.9562	1.43408	.00001
308.15	1	1.43598	.00001
318.15	0	1.37016	.00001
318.15	.1197	1.37896	.00001
318.15	.1772	1.3835	.00001
318.15	.3007	1.39227	.00001
318.15	.4009	1.39897	.00001
318.15	.5	1.40531	.00001
318.15	.5978	1.41097	.00001
318.15	.7194	1.41741	.00001
318.15	.8607	1.42424	.00001
318.15	.9562	1.42786	.00001
318.15	1	1.42986	.00001

System: nitromethane + 1,2-dichloroethane; phases: Liquid
Fixed: Pressure, kPa = 101.3
Property: Speed of sound, m/s (Liquid); method: Sing-around technique in a fixed-path interferometer
Temperature, K	Mole fraction of 1,2-dichloroethane	Speed of sound, m/s	uncertainty
298.15	0	1321.18	.5
298.15	.0878	1298.21	.5
298.15	.1939	1278.96	.5
298.15	.2938	1263.95	.5
298.15	.3998	1246.06	.5
298.15	.5028	1235.99	.5
298.15	.6154	1228.97	.5
298.15	.7207	1218.66	.5
298.15	.8326	1207.57	.5
298.15	.9404	1201.58	.5
298.15	1	1194.44	.5
308.15	0	1281.77	.5
308.15	.0878	1259.03	.5
308.15	.1939	1240.3	.5
308.15	.2938	1225.48	.5
308.15	.3998	1207.73	.5
308.15	.5028	1197.71	.5
308.15	.6154	1190.76	.5
308.15	.7207	1180.45	.5
308.15	.8326	1169.3	.5
308.15	.9404	1163.27	.5
308.15	1	1156.06	.5
318.15	0	1242.45	.5
318.15	.0878	1220.06	.5
318.15	.1939	1201.64	.5
318.15	.2938	1187.02	.5
318.15	.3998	1169.43	.5
318.15	.5028	1159.46	.5
318.15	.6154	1152.55	.5
318.15	.7207	1142.24	.5
318.15	.8326	1131.06	.5
318.15	.9404	1125	.5
318.15	1	1117.75	.5

System: nitromethane + 1,2-dichloroethane; phases: Liquid
Fixed: Pressure, kPa = 101.3
Property: Refractive index (Na D-line) (Liquid); method: Standard Abbe refractometry
Temperature, K	Mole fraction of 1,2-dichloroethane	Refractive index (Na D-line)	uncertainty
298.15	0	1.37952	.00001
298.15	.1132	1.38846	.00001
298.15	.2235	1.39669	.00001
298.15	.3249	1.40379	.00001
298.15	.4672	1.41318	.00001
298.15	.5586	1.4188	.00001
298.15	.6264	1.42279	.00001
298.15	.7349	1.42888	.00001
298.15	.857	1.43522	.00001
298.15	.923	1.43844	.00001
298.15	1	1.44206	.00001
308.15	0	1.37482	.00001
308.15	.1132	1.38351	.00001
308.15	.2235	1.39148	.00001
308.15	.3249	1.39839	.00001
308.15	.4672	1.40777	.00001
308.15	.5586	1.41343	.00001
308.15	.6264	1.41742	.00001
308.15	.7349	1.42345	.00001
308.15	.857	1.42981	.00001
308.15	.923	1.43304	.00001
308.15	1	1.43661	.00001
318.15	0	1.37009	.00001
318.15	.1132	1.37845	.00001
318.15	.2235	1.38609	.00001
318.15	.3249	1.39284	.00001
318.15	.4672	1.40213	.00001
318.15	.5586	1.40781	.00001
318.15	.6264	1.41184	.00001
318.15	.7349	1.41797	.00001
318.15	.857	1.42424	.00001
318.15	.923	1.42748	.00001
318.15	1	1.43109	.00001

System: nitromethane + 1,3-dichloropropane; phases: Liquid
Fixed: Pressure, kPa = 101.3
Property: Speed of sound, m/s (Liquid); method: Sing-around technique in a fixed-path interferometer
Temperature, K	Mole fraction of 1,3-dichloropropane	Speed of sound, m/s	uncertainty
298.15	0	1321.2	.5
298.15	.0878	1303.01	.5
298.15	.1939	1285.88	.5
298.15	.2938	1273.61	.5
298.15	.3998	1263.48	.5
298.15	.5028	1255.92	.5
298.15	.6154	1249.39	.5
298.15	.7207	1244.73	.5
298.15	.8326	1240.82	.5
298.15	.9404	1237.91	.5
298.15	1	1236.45	.5
308.15	0	1281.78	.5
308.15	.0878	1263.96	.5
308.15	.1939	1247.34	.5
308.15	.2938	1235.4	.5
308.15	.3998	1225.59	.5
308.15	.5028	1218.18	.5
308.15	.6154	1212	.5
308.15	.7207	1207.52	.5
308.15	.8326	1203.81	.5
308.15	.9404	1201.02	.5
308.15	1	1199.72	.5
318.15	0	1242.46	.5
318.15	.0878	1225.05	.5
318.15	.1939	1208.88	.5
318.15	.2938	1197.29	.5
318.15	.3998	1187.81	.5
318.15	.5028	1180.73	.5
318.15	.6154	1174.76	.5
318.15	.7207	1170.51	.5
318.15	.8326	1167.01	.5
318.15	.9404	1164.4	.5
318.15	1	1163.22	.5

System: nitromethane + 1,3-dichloropropane; phases: Liquid
Fixed: Pressure, kPa = 101.3
Property: Refractive index (Na D-line) (Liquid); method: Standard Abbe refractometry
Temperature, K	Mole fraction of 1,3-dichloropropane	Refractive index (Na D-line)	uncertainty
298.15	0	1.37948	.00001
298.15	.0878	1.38808	.00001
298.15	.1939	1.39757	.00001
298.15	.2938	1.40567	.00001
298.15	.3998	1.41335	.00001
298.15	.5028	1.42017	.00001
298.15	.6154	1.42699	.00001
298.15	.7207	1.43278	.00001
298.15	.8326	1.43844	.00001
298.15	.9404	1.44348	.00001
298.15	1	1.44617	.00001
308.15	0	1.3748	.00001
308.15	.0878	1.38325	.00001
308.15	.1939	1.39278	.00001
308.15	.2938	1.40095	.00001
308.15	.3998	1.40869	.00001
308.15	.5028	1.41551	.00001
308.15	.6154	1.42236	.00001
308.15	.7207	1.42826	.00001
308.15	.8326	1.43358	.00001
308.15	.9404	1.43846	.00001
308.15	1	1.44123	.00001
318.15	0	1.37007	.00001
318.15	.0878	1.37861	.00001
318.15	.1939	1.38807	.00001
318.15	.2938	1.39632	.00001
318.15	.3998	1.40422	.00001
318.15	.5028	1.41092	.00001
318.15	.6154	1.41782	.00001
318.15	.7207	1.4234	.00001
318.15	.8326	1.42879	.00001
318.15	.9404	1.43349	.00001
318.15	1	1.43614	.00001

System: nitromethane + 1,4-dichlorobutane; phases: Liquid
Fixed: Pressure, kPa = 101.3
Property: Speed of sound, m/s (Liquid); method: Sing-around technique in a fixed-path interferometer
Temperature, K	Mole fraction of 1,4-dichlorobutane	Speed of sound, m/s	uncertainty
298.15	0	1321.49	.5
298.15	.0825	1308.13	.5
298.15	.1759	1298.27	.5
298.15	.2825	1291.32	.5
298.15	.3815	1287.23	.5
298.15	.4815	1285.01	.5
298.15	.5911	1283.97	.5
298.15	.6898	1283.89	.5
298.15	.8208	1284.64	.5
298.15	.9262	1285.72	.5
298.15	1	1286.64	.5
308.15	0	1281.9	.5
308.15	.0825	1269.31	.5
308.15	.1759	1259.98	.5
308.15	.2825	1253.45	.5
308.15	.3815	1249.89	.5
308.15	.4815	1248.02	.5
308.15	.5911	1247.29	.5
308.15	.6898	1247.48	.5
308.15	.8208	1248.58	.5
308.15	.9262	1249.91	.5
308.15	1	1251	.5
318.15	0	1242.5	.5
318.15	.0825	1230.56	.5
318.15	.1759	1221.8	.5
318.15	.2825	1215.8	.5
318.15	.3815	1212.67	.5
318.15	.4815	1211.19	.5
318.15	.5911	1210.83	.5
318.15	.6898	1211.31	.5
318.15	.8208	1212.77	.5
318.15	.9262	1214.38	.5
318.15	1	1215.66	.5

System: nitromethane + 1,4-dichlorobutane; phases: Liquid
Fixed: Pressure, kPa = 101.3
Property: Refractive index (Na D-line) (Liquid); method: Standard Abbe refractometry
Temperature, K	Mole fraction of 1,4-dichlorobutane	Refractive index (Na D-line)	uncertainty
298.15	0	1.37955	.00001
298.15	.0825	1.38965	.00001
298.15	.1759	1.39985	.00001
298.15	.2825	1.40987	.00001
298.15	.3815	1.41799	.00001
298.15	.4815	1.42515	.00001
298.15	.5911	1.43204	.00001
298.15	.6898	1.43765	.00001
298.15	.8208	1.4443	.00001
298.15	.9262	1.44906	.00001
298.15	1	1.45224	.00001
308.15	0	1.37482	.00001
308.15	.0825	1.38514	.00001
308.15	.1759	1.39614	.00001
308.15	.2825	1.40646	.00001
308.15	.3815	1.41451	.00001
308.15	.4815	1.42129	.00001
308.15	.5911	1.4279	.00001
308.15	.6898	1.43335	.00001
308.15	.8208	1.43965	.00001
308.15	.9262	1.44436	.00001
308.15	1	1.44756	.00001
318.15	0	1.37001	.00001
318.15	.0825	1.38078	.00001
318.15	.1759	1.39174	.00001
318.15	.2825	1.40219	.00001
318.15	.3815	1.41005	.00001
318.15	.4815	1.41679	.00001
318.15	.5911	1.42357	.00001
318.15	.6898	1.42901	.00001
318.15	.8208	1.43512	.00001
318.15	.9262	1.43974	.00001
318.15	1	1.44279	.00001

System: nitromethane + 1-chlorobutane; phases: Liquid
Fixed: Pressure, kPa = 101.3
Property: Speed of sound, m/s (Liquid); method: Sing-around technique in a fixed-path interferometer
Temperature, K	Mole fraction of 1-chlorobutane	Speed of sound, m/s	uncertainty
298.15	0	1321.5	.5
298.15	.1107	1273.68	.5
298.15	.2174	1236.48	.5
298.15	.3236	1207.58	.5
298.15	.3932	1191.93	.5
298.15	.4856	1174.47	.5
298.15	.5569	1163.48	.5
298.15	.6626	1149.34	.5
298.15	.7722	1137.56	.5
298.15	.8646	1129.09	.5
298.15	1	1119	.5
308.15	0	1282.12	.5
308.15	.1107	1234.3	.5
308.15	.2174	1197.1	.5
308.15	.3236	1168.1	.5
308.15	.3932	1152.3	.5
308.15	.4856	1134.7	.5
308.15	.5569	1123.2	.5
308.15	.6626	1109.1	.5
308.15	.7722	1096.8	.5
308.15	.8646	1088.3	.5
308.15	1	1078.01	.5
318.15	0	1242.76	.5
318.15	.1107	1195	.5
318.15	.2174	1157.8	.5
318.15	.3236	1128.9	.5
318.15	.3932	1112.8	.5
318.15	.4856	1094.9	.5
318.15	.5569	1083.1	.5
318.15	.6626	1068.9	.5
318.15	.7722	1056.6	.5
318.15	.8646	1047.8	.5
318.15	1	1037.26	.5

System: nitromethane + 1-chlorobutane; phases: Liquid
Fixed: Pressure, kPa = 101.3
Property: Refractive index (Na D-line) (Liquid); method: Standard Abbe refractometry
Temperature, K	Mole fraction of 1-chlorobutane	Refractive index (Na D-line)	uncertainty
298.15	0	1.37917	.00001
298.15	.1107	1.38191	.00001
298.15	.2174	1.38445	.00001
298.15	.3236	1.38691	.00001
298.15	.3932	1.38839	.00001
298.15	.4856	1.39032	.00001
298.15	.5569	1.39177	.00001
298.15	.6626	1.39383	.00001
298.15	.7722	1.39577	.00001
298.15	.8646	1.39729	.00001
298.15	1	1.39953	.00001
308.15	0	1.37447	.00001
308.15	.1107	1.37698	.00001
308.15	.2174	1.37936	.00001
308.15	.3236	1.38174	.00001
308.15	.3932	1.38321	.00001
308.15	.4856	1.38511	.00001
308.15	.5569	1.38656	.00001
308.15	.6626	1.38853	.00001
308.15	.7722	1.39045	.00001
308.15	.8646	1.39196	.00001
308.15	1	1.39413	.00001
318.15	0	1.3695	.00001
318.15	.1107	1.3718	.00001
318.15	.2174	1.37406	.00001
318.15	.3236	1.37632	.00001
318.15	.3932	1.37772	.00001
318.15	.4856	1.37958	.00001
318.15	.5569	1.38104	.00001
318.15	.6626	1.38299	.00001
318.15	.7722	1.3848	.00001
318.15	.8646	1.38635	.00001
318.15	1	1.38851	.00001

System: nitromethane + 1-chloropentane; phases: Liquid
Fixed: Pressure, kPa = 101.3
Property: Speed of sound, m/s (Liquid); method: Sing-around technique in a fixed-path interferometer
Temperature, K	Mole fraction of 1-chloropentane	Speed of sound, m/s	uncertainty
298.15	0	1321.74	.5
298.15	.1043	1276.02	.5
298.15	.1721	1253.5	.5
298.15	.2575	1231.16	.5
298.15	.3466	1213.72	.5
298.15	.4525	1198.22	.5
298.15	.5435	1188.64	.5
298.15	.6864	1177.07	.5
298.15	.8325	1169.42	.5
298.15	.8859	1167.61	.5
298.15	1	1164.24	.5
308.15	0	1282.03	.5
308.15	.1043	1237.01	.5
308.15	.1721	1214.36	.5
308.15	.2575	1192.3	.5
308.15	.3466	1174.8	.5
308.15	.4525	1159.19	.5
308.15	.5435	1149.23	.5
308.15	.6864	1137.78	.5
308.15	.8325	1130.07	.5
308.15	.8859	1128.1	.5
308.15	1	1124.94	.5
318.15	0	1242.6	.5
318.15	.1043	1197.89	.5
318.15	.1721	1175.33	.5
318.15	.2575	1153.36	.5
318.15	.3466	1135.85	.5
318.15	.4525	1120.14	.5
318.15	.5435	1110.07	.5
318.15	.6864	1098.54	.5
318.15	.8325	1090.81	.5
318.15	.8859	1088.86	.5
318.15	1	1085.84	.5

System: nitromethane + 1-chloropentane; phases: Liquid
Fixed: Pressure, kPa = 101.3
Property: Refractive index (Na D-line) (Liquid); method: Standard Abbe refractometry
Temperature, K	Mole fraction of 1-chloropentane	Refractive index (Na D-line)	uncertainty
298.15	0	1.37954	.00001
298.15	.1044	1.38453	.00001
298.15	.1721	1.38722	.00001
298.15	.2575	1.39056	.00001
298.15	.3466	1.39367	.00001
298.15	.4525	1.39687	.00001
298.15	.5435	1.39934	.00001
298.15	.6864	1.40308	.00001
298.15	.8325	1.40646	.00001
298.15	.8859	1.4076	.00001
298.15	1	1.41015	.00001
308.15	0	1.3747	.00001
308.15	.1044	1.37934	.00001
308.15	.1721	1.3821	.00001
308.15	.2575	1.38539	.00001
308.15	.3466	1.38858	.00001
308.15	.4525	1.39181	.00001
308.15	.5435	1.39422	.00001
308.15	.6864	1.39792	.00001
308.15	.8325	1.4012	.00001
308.15	.8859	1.40244	.00001
308.15	1	1.40501	.00001
318.15	0	1.36996	.00001
318.15	.1044	1.37439	.00001
318.15	.1721	1.377	.00001
318.15	.2575	1.38037	.00001
318.15	.3466	1.38354	.00001
318.15	.4525	1.38674	.00001
318.15	.5435	1.38916	.00001
318.15	.6864	1.39268	.00001
318.15	.8325	1.396	.00001
318.15	.8859	1.3972	.00001
318.15	1	1.39984	.00001
