Measured thermophysical data. Phase equilibrium data for binary mixtures of carbon dioxide with {1,1,2,3,3,3-hexafluoro-1-propene or 2,2,3-trifluoro-3- (trifluoromethyl)oxirane} at temperatures between (233 and 273) K
Source: Fluid Phase Equilib., 2016, 10.1016/j.fluid.2016.05.004
Compound 1: carbon dioxide, CO2, purity 99.9%
Compound 2: hexafluoropropylene, C3F6, purity 99.8%
Compound 3: hexafluoropropene oxide, C3F6O, purity 99.7%

System: carbon dioxide; phases: Liquid, Gas
Property: Vapor or sublimation pressure, kPa (Liquid); method: Closed cell (Static) method
Temperature, K	Vapor or sublimation pressure, kPa	uncertainty
233.19	1009	
243.22	1432	
253.21	1970	
263.21	2645	
273.19	3473	

System: hexafluoropropylene; phases: Liquid, Gas
Property: Vapor or sublimation pressure, kPa (Liquid); method: Closed cell (Static) method
Temperature, K	Vapor or sublimation pressure, kPa	uncertainty
233.17	64	
243.23	102	
253.14	157	
263.2	233	
273.19	334	

System: hexafluoropropene oxide; phases: Liquid, Gas
Property: Vapor or sublimation pressure, kPa (Liquid); method: Closed cell (Static) method
Temperature, K	Vapor or sublimation pressure, kPa	uncertainty
233.17	58	
243.24	95	
253.22	145	
263.24	216	
273.18	310	

System: hexafluoropropylene + carbon dioxide; phases: Liquid, Gas
Property: Vapor or sublimation pressure, kPa (Liquid); method: Closed cell (Static) method
Mole fraction of carbon dioxide	Temperature, K	Vapor or sublimation pressure, kPa	uncertainty
.018	273.16	386	
.094	273.2	615	
.145	273.16	757	
.252	273.2	1072	
.358	273.16	1393	
.435	273.19	1632	
.591	273.19	2110	
.69	273.17	2412	
.703	273.16	2454	
.711	273.16	2485	
.745	273.16	2595	
.108	263.23	492	
.228	263.22	783	
.266	263.21	873	
.285	263.22	919	
.301	263.23	959	
.322	263.21	1014	
.456	263.22	1332	
.538	263.22	1522	
.59	263.22	1644	
.623	263.22	1722	
.68	263.21	1852	
.712	263.22	1935	
.739	263.22	1994	
.802	263.23	2152	
.876	263.23	2327	
.936	263.23	2480	
.953	263.23	2529	
.119	253.17	385	
.275	253.17	681	
.35	253.16	818	
.401	253.17	914	
.498	253.18	1083	
.516	253.15	1115	
.564	253.16	1202	
.615	253.16	1290	
.666	253.15	1380	
.771	253.16	1560	
.821	253.16	1646	
.908	253.15	1800	
.927	253.15	1833	
.98	253.16	1935	
.15	243.24	331	
.27	243.22	504	
.435	243.22	730	
.453	243.24	753	
.516	243.22	840	
.612	243.22	962	
.656	243.21	1017	
.718	243.23	1083	
.792	243.24	1175	
.88	243.21	1287	
.948	243.23	1378	
.977	243.23	1407	
.252	233.18	348	
.41	233.19	505	
.517	233.2	620	
.666	233.19	750	
.737	233.19	808	
.794	233.18	840	
.863	233.2	899	
.911	233.19	938	
.954	233.18	974	
.978	233.18	995	

System: hexafluoropropylene + carbon dioxide; phases: Gas, Liquid
Property: Mole fraction of carbon dioxide (Gas); method: Chromatography
Mole fraction of carbon dioxide	Temperature, K	Mole fraction of carbon dioxide	uncertainty
.018	273.16	.135	
.094	273.2	.439	
.145	273.16	.575	
.252	273.2	.707	
.358	273.16	.791	
.435	273.19	.831	
.591	273.19	.889	
.69	273.17	.917	
.703	273.16	.921	
.711	273.16	.923	
.745	273.16	.932	
.108	263.23	.536	
.228	263.22	.724	
.266	263.21	.757	
.285	263.22	.771	
.301	263.23	.782	
.322	263.21	.795	
.456	263.22	.862	
.538	263.22	.889	
.59	263.22	.905	
.623	263.22	.915	
.68	263.21	.927	
.712	263.22	.932	
.739	263.22	.941	
.802	263.23	.952	
.876	263.23	.971	
.936	263.23	.984	
.953	263.23	.988	
.119	253.17	.612	
.275	253.17	.788	
.35	253.16	.842	
.401	253.17	.865	
.498	253.18	.896	
.516	253.15	.899	
.564	253.16	.914	
.615	253.16	.925	
.666	253.15	.936	
.771	253.16	.956	
.821	253.16	.965	
.908	253.15	.981	
.927	253.15	.984	
.98	253.16	.996	
.15	243.24	.71	
.27	243.22	.825	
.435	243.22	.896	
.453	243.24	.902	
.516	243.22	.918	
.612	243.22	.937	
.656	243.21	.945	
.718	243.23	.955	
.792	243.24	.965	
.88	243.21	.978	
.948	243.23	.989	
.977	243.23	.996	
.252	233.18	.845	
.41	233.19	.907	
.517	233.2	.935	
.666	233.19	.957	
.737	233.19	.966	
.794	233.18	.971	
.863	233.2	.98	
.911	233.19	.986	
.954	233.18	.992	
.978	233.18	.996	

System: carbon dioxide + hexafluoropropene oxide; phases: Liquid, Gas
Property: Vapor or sublimation pressure, kPa (Liquid); method: Closed cell (Static) method
Mole fraction of carbon dioxide	Temperature, K	Vapor or sublimation pressure, kPa	uncertainty
.26	273.17	1093	
.471	273.18	1737	
.565	273.18	2031	
.691	273.19	2426	
.802	273.17	2784	
.104	263.22	460	
.167	263.22	616	
.271	263.24	876	
.323	263.22	1004	
.442	263.24	1295	
.574	263.24	1609	
.725	263.22	1967	
.813	263.23	2178	
.829	263.24	2219	
.882	263.24	2350	
.939	263.22	2493	
.957	263.22	2536	
.969	263.22	2571	
.981	263.23	2610	
.121	253.26	388	
.239	253.27	613	
.381	253.26	884	
.51	253.19	1119	
.56	253.25	1210	
.589	253.23	1260	
.725	253.25	1503	
.745	253.25	1527	
.792	253.25	1605	
.825	253.25	1676	
.893	253.25	1791	
.953	253.26	1886	
.977	253.24	1935	
.163	243.22	336	
.245	243.23	452	
.423	243.23	715	
.478	243.23	789	
.503	243.18	811	
.586	243.18	925	
.715	243.17	1085	
.768	243.15	1147	
.803	243.17	1187	
.892	243.18	1297	
.924	243.22	1342	
.948	243.22	1369	
.973	243.23	1400	
.992	243.24	1433	
.225	233.22	316	
.339	233.21	436	
.472	233.2	571	
.6	233.19	699	
.693	233.2	773	
.733	233.2	810	
.796	233.2	851	
.871	233.19	911	
.905	233.2	932	
.953	233.21	977	
.983	233.22	1000	

System: carbon dioxide + hexafluoropropene oxide; phases: Gas, Liquid
Property: Mole fraction of carbon dioxide (Gas); method: Chromatography
Mole fraction of carbon dioxide	Temperature, K	Mole fraction of carbon dioxide	uncertainty
.26	273.17	.735	
.471	273.18	.853	
.565	273.18	.885	
.691	273.19	.92	
.802	273.17	.945	
.104	263.22	.557	
.167	263.22	.673	
.271	263.24	.779	
.323	263.22	.812	
.442	263.24	.867	
.574	263.24	.908	
.725	263.22	.941	
.813	263.23	.958	
.829	263.24	.961	
.882	263.24	.973	
.939	263.22	.984	
.957	263.22	.988	
.969	263.22	.991	
.981	263.23	.994	
.121	253.26	.651	
.239	253.27	.787	
.381	253.26	.868	
.51	253.19	.908	
.56	253.25	.92	
.589	253.23	.926	
.725	253.25	.95	
.745	253.25	.954	
.792	253.25	.962	
.825	253.25	.966	
.893	253.25	.976	
.953	253.26	.989	
.977	253.24	.994	
.163	243.22	.746	
.245	243.23	.825	
.423	243.23	.903	
.478	243.23	.917	
.503	243.18	.924	
.586	243.18	.937	
.715	243.17	.957	
.768	243.15	.965	
.803	243.17	.969	
.892	243.18	.98	
.924	243.22	.984	
.948	243.22	.99	
.973	243.23	.995	
.992	243.24	.998	
.225	233.22	.843	
.339	233.21	.896	
.472	233.2	.932	
.6	233.19	.95	
.693	233.2	.959	
.733	233.2	.966	
.796	233.2	.975	
.871	233.19	.982	
.905	233.2	.986	
.953	233.21	.992	
.983	233.22	.997	
