Measured thermophysical data. Isothermal vapour liquid equilibria in the binary and ternary systems consisting of an ionic liquid, 1-propanol and CO2
Source: Fluid Phase Equilib., 2010, 10.1016/j.fluid.2010.03.008
Compound 1: 1-ethyl-3-methylimidazolium bis[(trifluoromethyl)sulfonyl]imide, C8H11F6N3O4S2, purity 98%
Compound 2: 1-ethyl-3-methylimidazolium trifluoromethanesulfonate, C7H11F3N2O3S, purity 98%
Compound 3: 1-decyl-3-methylimidazolium bis(trifluoromethylsulfonyl)amide, C16H27F6N3O4S2, purity 98%
Compound 4: carbon dioxide, CO2, purity 99.998%
Compound 5: 1-propanol, C3H8O, purity 99.5%

System: carbon dioxide + 1-decyl-3-methylimidazolium bis(trifluoromethylsulfonyl)amide; phases: Liquid, Gas
Fixed: Temperature, K = 313.15
Property: Vapor or sublimation pressure, kPa (Liquid); method: Closed cell (Static) method
Mole fraction of carbon dioxide	Vapor or sublimation pressure, kPa	uncertainty
.483	2000	10
.533	2230	10
.588	2780	10
.649	3450	10
.689	3890	10
.759	5800	10
.782	6340	10
.783	7000	10
.805	7430	10
.822	9000	10
.835	10000	10
.849	12000	10
.856	13200	10
.857	14400	10

System: carbon dioxide + 1-decyl-3-methylimidazolium bis(trifluoromethylsulfonyl)amide; phases: Gas, Liquid
Fixed: Temperature, K = 313.15
Property: Mole fraction of carbon dioxide (Gas); method: volumetric method
Mole fraction of carbon dioxide	Mole fraction of carbon dioxide	uncertainty
.483	1	.002
.533	1	.002
.588	1	.002
.649	1	.002
.689	1	.002
.759	1	.002
.782	1	.002
.783	1	.002
.805	1	.002
.822	1	.002
.835	1	.002
.849	1	.002
.856	1	.002
.857	1	.002

System: 1-propanol + carbon dioxide + 1-ethyl-3-methylimidazolium bis[(trifluoromethyl)sulfonyl]imide; phases: Gas, Liquid
Fixed: Temperature, K = 313.15
Property: Vapor or sublimation pressure, kPa (Gas); method: Closed cell (Static) method
Mole fraction of 1-propanol	Mole fraction of 1-ethyl-3-methylimidazolium bis[(trifluoromethyl)sulfonyl]imide	Vapor or sublimation pressure, kPa	uncertainty
0	.3	9000	10
.174	.106	9000	10
.135	.16	9000	10
.071	.227	9000	10
0	.286	10000	10
.143	.067	10000	10
.111	.133	10000	10
.073	.198	10000	10
0	.276	12000	10
.109	.04	12000	10
.101	.106	12000	10
.063	.174	12000	10

System: 1-propanol + carbon dioxide + 1-ethyl-3-methylimidazolium bis[(trifluoromethyl)sulfonyl]imide; phases: Gas, Liquid
Fixed: Temperature, K = 313.15
Property: Mole fraction of 1-propanol (Gas); method: Chromatography
Mole fraction of 1-propanol	Mole fraction of 1-ethyl-3-methylimidazolium bis[(trifluoromethyl)sulfonyl]imide	Mole fraction of 1-propanol	uncertainty
0	.3	0	.003
.174	.106	.101	.003
.135	.16	.074	.003
.071	.227	.042	.003
0	.286	0	.003
.143	.067	.065	.003
.111	.133	.049	.003
.073	.198	.025	.003
0	.276	0	.003
.109	.04	.059	.003
.101	.106	.045	.003
.063	.174	.021	.003

System: 1-propanol + carbon dioxide + 1-ethyl-3-methylimidazolium trifluoromethanesulfonate; phases: Gas, Liquid
Fixed: Temperature, K = 313.15
Property: Vapor or sublimation pressure, kPa (Gas); method: Closed cell (Static) method
Mole fraction of 1-propanol	Mole fraction of 1-ethyl-3-methylimidazolium trifluoromethanesulfonate	Vapor or sublimation pressure, kPa	uncertainty
0	.426	9000	10
.301	.088	9000	10
.216	.202	9000	10
.101	.325	9000	10
0	.417	10000	10
.233	.097	10000	10
.182	.195	10000	10
.111	.288	10000	10
0	.408	12000	10
.213	.031	12000	10
.21	.15	12000	10
.15	.25	12000	10

System: 1-propanol + carbon dioxide + 1-ethyl-3-methylimidazolium trifluoromethanesulfonate; phases: Gas, Liquid
Fixed: Temperature, K = 313.15
Property: Mole fraction of 1-propanol (Gas); method: Chromatography
Mole fraction of 1-propanol	Mole fraction of 1-ethyl-3-methylimidazolium trifluoromethanesulfonate	Mole fraction of 1-propanol	uncertainty
0	.426	0	.002
.301	.088	.126	.002
.216	.202	.084	.002
.101	.325	.032	.002
0	.417	0	.002
.233	.097	.052	.002
.182	.195	.041	.002
.111	.288	.019	.002
0	.408	0	.002
.213	.031	.049	.002
.21	.15	.032	.002
.15	.25	.013	.002

System: 1-propanol + carbon dioxide + 1-decyl-3-methylimidazolium bis(trifluoromethylsulfonyl)amide; phases: Gas, Liquid
Fixed: Temperature, K = 313.15
Property: Vapor or sublimation pressure, kPa (Gas); method: Closed cell (Static) method
Mole fraction of 1-propanol	Mole fraction of 1-decyl-3-methylimidazolium bis(trifluoromethylsulfonyl)amide	Vapor or sublimation pressure, kPa	uncertainty
0	.187	9000	10
.127	.04	9000	10
.094	.081	9000	10
.052	.126	9000	10
0	.165	10000	10
.106	.03	10000	10
.085	.07	10000	10
.06	.1	10000	10
0	.151	12000	10
.097	.021	12000	10
.076	.062	12000	10
.047	.101	12000	10

System: 1-propanol + carbon dioxide + 1-decyl-3-methylimidazolium bis(trifluoromethylsulfonyl)amide; phases: Gas, Liquid
Fixed: Temperature, K = 313.15
Property: Mole fraction of 1-propanol (Gas); method: Chromatography
Mole fraction of 1-propanol	Mole fraction of 1-decyl-3-methylimidazolium bis(trifluoromethylsulfonyl)amide	Mole fraction of 1-propanol	uncertainty
0	.187	0	.002
.127	.04	.085	.002
.094	.081	.059	.002
.052	.126	.032	.002
0	.165	0	.002
.106	.03	.068	.002
.085	.07	.052	.002
.06	.1	.027	.002
0	.151	0	.002
.097	.021	.058	.002
.076	.062	.037	.002
.047	.101	.017	.002
