Measured thermophysical data. Vapour-liquid equilibrium of carboxylic acid alcohol binary systems:2-Propanol + butyric acid, 2-butanol + butyric acid and 2-methyl-1-propanol + butyric acid
Source: Fluid Phase Equilib., 2014, 10.1016/j.fluid.2014.07.025
Compound 1: 2-propanol, C3H8O, purity 99.8%
Compound 2: butyric acid, C4H8O2, purity 99.5%
Compound 3: 2-butanol, C4H10O, purity 99.5%
Compound 4: 2-methyl-1-propanol, C4H10O, purity 99%

System: 2-propanol; phases: Liquid
Fixed: Pressure, kPa = 101.325
Property: Refractive index (Na D-line) (Liquid); method: Standard Abbe refractometry
Temperature, K	Refractive index (Na D-line)	uncertainty
293.15	1.3774	.003

System: butyric acid; phases: Liquid
Fixed: Pressure, kPa = 101.325
Property: Refractive index (Na D-line) (Liquid); method: Standard Abbe refractometry
Temperature, K	Refractive index (Na D-line)	uncertainty
293.15	1.3982	.003

System: 2-butanol; phases: Liquid
Fixed: Pressure, kPa = 101.325
Property: Refractive index (Na D-line) (Liquid); method: Standard Abbe refractometry
Temperature, K	Refractive index (Na D-line)	uncertainty
293.15	1.3973	.003

System: 2-methyl-1-propanol; phases: Liquid
Fixed: Pressure, kPa = 101.325
Property: Refractive index (Na D-line) (Liquid); method: Standard Abbe refractometry
Temperature, K	Refractive index (Na D-line)	uncertainty
293.15	1.3958	.003

System: 2-propanol + butyric acid; phases: Liquid, Gas
Property: Vapor or sublimation pressure, kPa (Liquid); method: Ebulliometric method (Recirculating still)
Mole fraction of 2-propanol	Temperature, K	Vapor or sublimation pressure, kPa	uncertainty
0	333.15	1.29	.14
.0242	333.15	1.82	.14
.0738	333.15	3.51	.14
.1467	333.15	6.38	.14
.1851	333.15	8.13	.14
.2631	333.15	10.8	.14
.2858	333.15	11.67	.14
.3812	333.15	14.66	.14
.4479	333.15	17.19	.14
.5022	333.15	19.19	.14
.5531	333.15	21.28	.14
.6005	333.15	23.02	.14
.6501	333.15	24.74	.14
.7318	333.15	27.64	.14
.8278	333.15	31.32	.14
.9544	333.15	35.69	.14
1	333.15	37.39	.14
0	353.15	3.86	.14
.01	353.15	4.86	.14
.0329	353.15	6.34	.14
.0455	353.15	7.98	.14
.0763	353.15	10.78	.14
.0877	353.15	11.6	.14
.1113	353.15	13.96	.14
.1244	353.15	15.29	.14
.1918	353.15	21.13	.14
.2503	353.15	25.42	.14
.2884	353.15	29.2	.14
.5161	353.15	49.79	.14
.5673	353.15	53.43	.14
.6471	353.15	60.62	.14
.8889	353.15	80.55	.14
1	353.15	90.36	.14
0	373.15	9.94	.14
.0085	373.15	10.85	.14
.033	373.15	14.85	.14
.0728	373.15	21.07	.14
.1261	373.15	30.06	.14
.1908	373.15	41.22	.14
.232	373.15	47.46	.14
.3039	373.15	60.77	.14
.3673	373.15	71.76	.14
.4116	373.15	79.96	.14
.4576	373.15	90.23	.14
.5149	373.15	101.74	.15
.5207	373.15	103.02	.15
.5644	373.15	109.44	.15
.7795	373.15	151.1	.15
.888	373.15	171.14	.15
1	373.15	194.4	.15

System: 2-propanol + butyric acid; phases: Gas, Liquid
Property: Mole fraction of 2-propanol (Gas); method: Chromatography
Mole fraction of 2-propanol	Temperature, K	Mole fraction of 2-propanol	uncertainty
0	333.15	0	.002
.0242	333.15	.2656	.002
.0738	333.15	.5705	.002
.1467	333.15	.7704	.002
.1851	333.15	.8197	.002
.2631	333.15	.8766	.002
.2858	333.15	.8903	.002
.3812	333.15	.9298	.002
.4479	333.15	.9553	.002
.5022	333.15	.9665	.002
.5531	333.15	.9736	.002
.6005	333.15	.9768	.002
.6501	333.15	.9852	.002
.7318	333.15	.9905	.002
.8278	333.15	.9909	.002
.9544	333.15	.9941	.002
1	333.15	1	.002
0	353.15	0	.002
.01	353.15	.1579	.002
.0329	353.15	.2558	.002
.0455	353.15	.3682	.002
.0763	353.15	.5298	.002
.0877	353.15	.5817	.002
.1113	353.15	.6397	.002
.1244	353.15	.6682	.002
.1918	353.15	.7669	.002
.2503	353.15	.8402	.002
.2884	353.15	.8755	.002
.5161	353.15	.959	.002
.5673	353.15	.9677	.002
.6471	353.15	.9775	.002
.8889	353.15	.9999	.002
1	353.15	1	.002
0	373.15	0	.002
.0085	373.15	.1255	.002
.033	373.15	.2876	.002
.0728	373.15	.497	.002
.1261	373.15	.6483	.002
.1908	373.15	.7454	.002
.232	373.15	.7846	.002
.3039	373.15	.8381	.002
.3673	373.15	.8806	.002
.4116	373.15	.9013	.002
.4576	373.15	.9151	.002
.5149	373.15	.9297	.002
.5207	373.15	.934	.002
.5644	373.15	.9436	.002
.7795	373.15	.9812	.002
.888	373.15	.9925	.002
1	373.15	1	.002

System: 2-butanol + butyric acid; phases: Liquid, Gas
Property: Vapor or sublimation pressure, kPa (Liquid); method: Ebulliometric method (Recirculating still)
Mole fraction of 2-butanol	Temperature, K	Vapor or sublimation pressure, kPa	uncertainty
0	333.15	1.29	.14
.0325	333.15	1.68	.14
.0588	333.15	2.21	.14
.1192	333.15	3.06	.14
.2032	333.15	4.47	.14
.2725	333.15	5.84	.14
.2567	333.15	5.66	.14
.3071	333.15	6.56	.14
.3946	333.15	7.86	.14
.5028	333.15	9.98	.14
.63	333.15	11.82	.14
.6383	333.15	11.92	.14
.7695	333.15	14.2	.14
.7936	333.15	14.67	.14
1	333.15	18.7	.14
0	353.15	3.82	.14
.0429	353.15	5.039	.14
.0701	353.15	6.281	.14
.0948	353.15	7.586	.14
.1052	353.15	7.738	.14
.1238	353.15	8.396	.14
.2653	353.15	14.592	.14
.3179	353.15	17.303	.14
.4007	353.15	20.737	.14
.463	353.15	22.764	.14
.5225	353.15	26.477	.14
.5982	353.15	29.251	.14
.7005	353.15	34.395	.14
.745	353.15	36.144	.14
.8158	353.15	39.628	.14
.9689	353.15	46.38	.14
1	353.15	48.05	.14
0	373.15	10.16	.14
.0511	373.15	14.6	.14
.0596	373.15	15.33	.14
.1033	373.15	20.61	.14
.1521	373.15	24.79	.14
.1961	373.15	27.36	.14
.2528	373.15	33.6	.14
.335	373.15	39.34	.14
.3791	373.15	44.51	.14
.4489	373.15	50.03	.14
.4839	373.15	53.92	.14
.5284	373.15	58.9	.14
.6166	373.15	68.25	.14
.6199	373.15	68.53	.14
.6999	373.15	74.96	.14
.7856	373.15	82.58	.14
.8853	373.15	92.56	.14
.9866	373.15	102.6	.15
1	373.15	104.6	.15

System: 2-butanol + butyric acid; phases: Gas, Liquid
Property: Mole fraction of 2-butanol (Gas); method: Chromatography
Mole fraction of 2-butanol	Temperature, K	Mole fraction of 2-butanol	uncertainty
0	333.15	0	.002
.0325	333.15	.2199	.002
.0588	333.15	.4268	.002
.1192	333.15	.5703	.002
.2032	333.15	.7285	.002
.2725	333.15	.8343	.002
.2567	333.15	.8242	.002
.3071	333.15	.871	.002
.3946	333.15	.9056	.002
.5028	333.15	.9393	.002
.63	333.15	.9673	.002
.6383	333.15	.969	.002
.7695	333.15	.9774	.002
.7936	333.15	.9837	.002
1	333.15	1	.002
0	353.15	0	.002
.0429	353.15	.2791	.002
.0701	353.15	.4363	.002
.0948	353.15	.4998	.002
.1052	353.15	.5266	.002
.1238	353.15	.5671	.002
.2653	353.15	.7702	.002
.3179	353.15	.8294	.002
.4007	353.15	.8667	.002
.463	353.15	.9049	.002
.5225	353.15	.9332	.002
.5982	353.15	.9542	.002
.7005	353.15	.9746	.002
.745	353.15	.9818	.002
.8158	353.15	.983	.002
.9689	353.15	1	.002
1	353.15	1	.002
0	373.15	0	.002
.0511	373.15	.3035	.002
.0596	373.15	.3518	.002
.1033	373.15	.5259	.002
.1521	373.15	.6223	.002
.1961	373.15	.6857	.002
.2528	373.15	.7559	.002
.335	373.15	.8135	.002
.3791	373.15	.8549	.002
.4489	373.15	.8917	.002
.4839	373.15	.8941	.002
.5284	373.15	.9287	.002
.6166	373.15	.9502	.002
.6199	373.15	.9517	.002
.6999	373.15	.9722	.002
.7856	373.15	.9866	.002
.8853	373.15	.9934	.002
.9866	373.15	1	.002
1	373.15	1	.002

System: 2-methyl-1-propanol + butyric acid; phases: Liquid, Gas
Property: Vapor or sublimation pressure, kPa (Liquid); method: Ebulliometric method (Recirculating still)
Mole fraction of 2-methyl-1-propanol	Temperature, K	Vapor or sublimation pressure, kPa	uncertainty
0	333.15	1.29	.14
.0816	333.15	1.95	.14
.0932	333.15	2.1	.14
.1259	333.15	2.49	.14
.1659	333.15	2.83	.14
.2118	333.15	3.38	.14
.2651	333.15	4.03	.14
.3211	333.15	4.58	.14
.3812	333.15	5.34	.14
.4758	333.15	6.3	.14
.5195	333.15	6.93	.14
.6472	333.15	8.23	.14
.7185	333.15	9.04	.14
.7699	333.15	9.81	.14
.8788	333.15	11.02	.14
1	333.15	12.36	.14
0	353.15	3.86	.14
.0705	353.15	5.53	.14
.1424	353.15	7.56	.14
.2107	353.15	9.55	.14
.2423	353.15	10.44	.14
.2813	353.15	11.32	.14
.3461	353.15	13.06	.14
.393	353.15	14.59	.14
.4305	353.15	15.77	.14
.4903	353.15	17.38	.14
.5524	353.15	19.32	.14
.6107	353.15	20.99	.14
.6616	353.15	23.14	.14
.7278	353.15	24.93	.14
.8256	353.15	27.76	.14
1	353.15	33.22	.14
0	373.15	9.94	.14
.0567	373.15	13.68	.14
.0948	373.15	15.47	.14
.16	373.15	19.1	.14
.3251	373.15	29.31	.14
.386	373.15	33.34	.14
.452	373.15	38.27	.14
.4883	373.15	40.9	.14
.5309	373.15	43.58	.14
.5788	373.15	47.71	.14
.6257	373.15	50.52	.14
.6756	373.15	53.73	.14
.6969	373.15	55.28	.14
.7518	373.15	59.49	.14
.8118	373.15	63.33	.14
.8612	373.15	66.21	.14
1	373.15	76.32	.14

System: 2-methyl-1-propanol + butyric acid; phases: Gas, Liquid
Property: Mole fraction of 2-methyl-1-propanol (Gas); method: Chromatography
Mole fraction of 2-methyl-1-propanol	Temperature, K	Mole fraction of 2-methyl-1-propanol	uncertainty
0	333.15	0	.002
.0816	333.15	.3946	.002
.0932	333.15	.4323	.002
.1259	333.15	.5096	.002
.1659	333.15	.6009	.002
.2118	333.15	.6693	.002
.2651	333.15	.7359	.002
.3211	333.15	.7927	.002
.3812	333.15	.8411	.002
.4758	333.15	.8908	.002
.5195	333.15	.9187	.002
.6472	333.15	.9546	.002
.7185	333.15	.9712	.002
.7699	333.15	.9789	.002
.8788	333.15	.9925	.002
1	333.15	1	.002
0	353.15	0	.002
.0705	353.15	.3288	.002
.1424	353.15	.5212	.002
.2107	353.15	.6336	.002
.2423	353.15	.6818	.002
.2813	353.15	.7217	.002
.3461	353.15	.7743	.002
.393	353.15	.8168	.002
.4305	353.15	.8478	.002
.4903	353.15	.8857	.002
.5524	353.15	.9157	.002
.6107	353.15	.9382	.002
.6616	353.15	.9536	.002
.7278	353.15	.9699	.002
.8256	353.15	.9861	.002
1	353.15	1	.002
0	373.15	0	.002
.0567	373.15	.242	.002
.0948	373.15	.3631	.002
.16	373.15	.5156	.002
.3251	373.15	.7247	.002
.386	373.15	.7745	.002
.452	373.15	.8321	.002
.4883	373.15	.853	.002
.5309	373.15	.8751	.002
.5788	373.15	.9033	.002
.6257	373.15	.9232	.002
.6756	373.15	.9479	.002
.6969	373.15	.9528	.002
.7518	373.15	.968	.002
.8118	373.15	.9814	.002
.8612	373.15	.9858	.002
1	373.15	1	.002
