Measured thermophysical data. Solubilities of 5,10,15,20-tetrakis(4-chlorophenyl) porphyrinmanganese(III) chloride in N,N-dimethylformamide + water mixtures
Source: Fluid Phase Equilib., 2014, 10.1016/j.fluid.2014.08.006
Compound 1: 5,10,15,20-tetrakis(4-chlorophenyl) porphyrin manganese(III) chloride, C44H24Cl5MnN4, purity 95%
Compound 2: N,N-dimethylformamide, C3H7NO, purity 99.5%
Compound 3: water, H2O, purity 99.9%

System: N,N-dimethylformamide + water + 5,10,15,20-tetrakis(4-chlorophenyl) porphyrin manganese(III) chloride; phases: Liquid, Crystal
Fixed: Pressure, kPa = 100
Property: Mole fraction of 5,10,15,20-tetrakis(4-chlorophenyl) porphyrin manganese(III) chloride (Liquid); method: Gravimetric + UV spectrophotometry
Temperature, K	Solvent: Mass fraction of N,N-dimethylformamide	Mole fraction of 5,10,15,20-tetrakis(4-chlorophenyl) porphyrin manganese(III) chloride	uncertainty
293.2	1	.004705	.00023525
303.2	1	.0047813	.000239065
313.2	1	.0048933	.000244665
323.2	1	.0049834	.00024917
333.2	1	.005046	.0002523
343.2	1	.0051854	.00025927
353.2	1	.0053041	.000265205
293.2	.98	.0022752	.00011376
303.2	.98	.0026999	.000134995
313.2	.98	.0029427	.000147135
323.2	.98	.0031204	.00015602
333.2	.98	.0031865	.000159325
343.2	.98	.003487	.00017435
353.2	.98	.0035525	.000177625
293.2	.96	.0014712	.00007356
303.2	.96	.0018196	.00009098
313.2	.96	.001995	.00009975
323.2	.96	.0021728	.00010864
333.2	.96	.0023428	.00011714
343.2	.96	.0025065	.000125325
353.2	.96	.0027443	.000137215
293.2	.94	.0011831	.000059155
303.2	.94	.001327	.00006635
313.2	.94	.001496	.0000748
323.2	.94	.0016783	.000083915
333.2	.94	.0018328	.00009164
343.2	.94	.001989	.00009945
353.2	.94	.0021696	.00010848
293.2	.92	.000975	.00004875
303.2	.92	.0010795	.000053975
313.2	.92	.0011946	.00005973
323.2	.92	.0013119	.000065595
333.2	.92	.001488	.0000744
343.2	.92	.001648	.0000824
353.2	.92	.0017675	.000088375
293.2	.9	.0008331	.000041655
303.2	.9	.0009254	.00004627
313.2	.9	.001029	.00005145
323.2	.9	.0011278	.00005639
333.2	.9	.0012307	.000061535
343.2	.9	.0013538	.00006769
353.2	.9	.001478	.0000739
293.2	.88	.0007309	.000036545
303.2	.88	.0007932	.00003966
313.2	.88	.0008772	.00004386
323.2	.88	.0009545	.000047725
333.2	.88	.0010383	.000051915
343.2	.88	.0011267	.000056335
353.2	.88	.0012395	.000061975
293.2	.86	.0006619	.000033095
303.2	.86	.000722	.0000361
313.2	.86	.0007758	.00003879
323.2	.86	.0008329	.000041645
333.2	.86	.0008922	.00004461
343.2	.86	.000969	.00004845
353.2	.86	.0010794	.00005397
293.2	.84	.0006104	.00003052
303.2	.84	.0006458	.00003229
313.2	.84	.0006945	.000034725
323.2	.84	.0007576	.00003788
333.2	.84	.000781	.00003905
343.2	.84	.0008644	.00004322
353.2	.84	.0009335	.000046675
293.2	.82	.0005583	.000027915
303.2	.82	.0005874	.00002937
313.2	.82	.0006139	.000030695
323.2	.82	.0006506	.00003253
333.2	.82	.0007042	.00003521
343.2	.82	.0007615	.000038075
353.2	.82	.0008358	.00004179
293.2	.8	.0005177	.000025885
303.2	.8	.00055	.0000275
313.2	.8	.0005619	.000028095
323.2	.8	.0005758	.00002879
333.2	.8	.0006133	.000030665
343.2	.8	.0006525	.000032625
353.2	.8	.0006979	.000034895
