Measured thermophysical data. Ternary liquid-liquid equilibria of bis(trifluoromethylsulfonyl)-amide based ionic liquids + thiophene + n-heptane. The influence of cation structure
Source: Fluid Phase Equilib., 2012, 10.1016/j.fluid.2012.02.019
Compound 1: 4-(2-methoxyethyl)-4-methylmorpholinium bis(trifluoromethylsulfonyl)amide, C10H18F6N2O6S2, purity 99.5%
Compound 2: 1-(2-methoxyethyl)-1-methylpyrrolidinium bis((trifluoromethyl)sulfonyl)amide, C10H18F6N2O5S2, purity 99.5%
Compound 3: thiophene, C4H4S, purity 99.88%
Compound 4: heptane, C7H16, purity 99.79%
Compound 5: 1-(2-methoxyethyl)-1-methylpiperidinium bis(trifluoromethylsulfonyl)imide, C11H20F6N2O5S2, purity 99.5%

System: 4-(2-methoxyethyl)-4-methylmorpholinium bis(trifluoromethylsulfonyl)amide; phases: Liquid
Fixed: Pressure, kPa = 101.325
Property: Viscosity, Pa*s (Liquid); method: Capillary tube (Ostwald; Ubbelohde) method
Temperature, K	Viscosity, Pa*s	uncertainty
298.15	.3061	.0003061
308.15	.1559	.0001559
318.15	.09068	.00009068
328.15	.05723	.00005723
338.15	.03869	.00003869
348.15	.02754	.00002754

System: 4-(2-methoxyethyl)-4-methylmorpholinium bis(trifluoromethylsulfonyl)amide; phases: Liquid
Fixed: Pressure, kPa = 101.325
Property: Mass density, kg/m3 (Liquid); method: Vibrating tube method
Temperature, K	Mass density, kg/m3	uncertainty
298.15	1500.4	.01
308.15	1490.91	.01
318.15	1481.81	.01
328.15	1472.7	.01
338.15	1463.61	.01
348.15	1454.57	.01

System: 1-(2-methoxyethyl)-1-methylpyrrolidinium bis((trifluoromethyl)sulfonyl)amide; phases: Liquid
Fixed: Pressure, kPa = 101.325
Property: Mass density, kg/m3 (Liquid); method: Vibrating tube method
Temperature, K	Mass density, kg/m3	uncertainty
298.15	1453.84	.01
308.15	1444.46	.01
318.15	1435.13	.01
328.15	1425.87	.01
338.15	1416.67	.01
348.15	1407.54	.01

System: 1-(2-methoxyethyl)-1-methylpyrrolidinium bis((trifluoromethyl)sulfonyl)amide; phases: Liquid
Fixed: Pressure, kPa = 101.325
Property: Viscosity, Pa*s (Liquid); method: Capillary tube (Ostwald; Ubbelohde) method
Temperature, K	Viscosity, Pa*s	uncertainty
298.15	.05452	.00005452
308.15	.03694	.00003694
318.15	.02641	.00002641
328.15	.01823	.00001823
338.15	.01406	.00001406
348.15	.01107	.00001107

System: 1-(2-methoxyethyl)-1-methylpiperidinium bis(trifluoromethylsulfonyl)imide; phases: Liquid
Fixed: Pressure, kPa = 101.325
Property: Mass density, kg/m3 (Liquid); method: Vibrating tube method
Temperature, K	Mass density, kg/m3	uncertainty
298.15	1434.94	.01
308.15	1425.87	.01
318.15	1416.83	.01
328.15	1407.85	.01
338.15	1398.91	.01
348.15	1390.05	.01

System: 1-(2-methoxyethyl)-1-methylpiperidinium bis(trifluoromethylsulfonyl)imide; phases: Liquid
Fixed: Pressure, kPa = 101.325
Property: Viscosity, Pa*s (Liquid); method: Capillary tube (Ostwald; Ubbelohde) method
Temperature, K	Viscosity, Pa*s	uncertainty
298.15	.1026	.0001026
308.15	.06322	.00006322
318.15	.04192	.00004192
328.15	.02943	.00002943
338.15	.02153	.00002153
348.15	.01632	.00001632

System: thiophene + heptane + 4-(2-methoxyethyl)-4-methylmorpholinium bis(trifluoromethylsulfonyl)amide; phases: Liquid mixture 1, Liquid mixture 2
Property: Mole fraction of 4-(2-methoxyethyl)-4-methylmorpholinium bis(trifluoromethylsulfonyl)amide (Liquid mixture 1); method: Chromatography
Property: Mole fraction of 4-(2-methoxyethyl)-4-methylmorpholinium bis(trifluoromethylsulfonyl)amide (Liquid mixture 2); method: Chromatography
Property: Mole fraction of thiophene (Liquid mixture 2); method: Chromatography
Temperature, K	Pressure, kPa	Mole fraction of thiophene	Mole fraction of 4-(2-methoxyethyl)-4-methylmorpholinium bis(trifluoromethylsulfonyl)amide	uncertainty	Mole fraction of 4-(2-methoxyethyl)-4-methylmorpholinium bis(trifluoromethylsulfonyl)amide	uncertainty	Mole fraction of thiophene	uncertainty
298.15	101.325	0	0	.002	.984	.002	0	.002
298.15	101.325	.295	0	.002	.588	.002	.395	.002
298.15	101.325	.409	0	.002	.509	.002	.473	.002
298.15	101.325	.457	0	.002	.479	.002	.503	.002
298.15	101.325	.571	0	.002	.409	.002	.571	.002
298.15	101.325	.587	0	.002	.401	.002	.578	.002
298.15	101.325	.697	0	.002	.357	.002	.624	.002
298.15	101.325	.793	0	.002	.309	.002	.673	.002
298.15	101.325	.911	0	.002	.251	.002	.736	.002
298.15	101.325	.949	0	.002	.235	.002	.756	.002
298.15	101.325	1	0	.002	.204	.002	.796	.002
298.15	101.325	.054	0	.002	.888	.002	.096	.002
298.15	101.325	.118	0	.002	.795	.002	.189	.002
298.15	101.325	.209	0	.002	.676	.002	.307	.002

System: thiophene + heptane + 1-(2-methoxyethyl)-1-methylpyrrolidinium bis((trifluoromethyl)sulfonyl)amide; phases: Liquid mixture 1, Liquid mixture 2
Property: Mole fraction of 1-(2-methoxyethyl)-1-methylpyrrolidinium bis((trifluoromethyl)sulfonyl)amide (Liquid mixture 1); method: Chromatography
Property: Mole fraction of 1-(2-methoxyethyl)-1-methylpyrrolidinium bis((trifluoromethyl)sulfonyl)amide (Liquid mixture 2); method: Chromatography
Property: Mole fraction of thiophene (Liquid mixture 2); method: Chromatography
Temperature, K	Pressure, kPa	Mole fraction of thiophene	Mole fraction of 1-(2-methoxyethyl)-1-methylpyrrolidinium bis((trifluoromethyl)sulfonyl)amide	uncertainty	Mole fraction of 1-(2-methoxyethyl)-1-methylpyrrolidinium bis((trifluoromethyl)sulfonyl)amide	uncertainty	Mole fraction of thiophene	uncertainty
298.15	101.325	0	0	.002	.951	.002	0	.002
298.15	101.325	.249	0	.002	.555	.002	.41	.002
298.15	101.325	.392	0	.002	.434	.002	.532	.002
298.15	101.325	.493	0	.002	.371	.002	.596	.002
298.15	101.325	.577	0	.002	.324	.002	.642	.002
298.15	101.325	.677	0	.002	.28	.002	.687	.002
298.15	101.325	.756	0	.002	.253	.002	.716	.002
298.15	101.325	.762	0	.002	.252	.002	.717	.002
298.15	101.325	.861	0	.002	.21	.002	.764	.002
298.15	101.325	.978	0	.002	.164	.002	.83	.002
298.15	101.325	1	0	.002	.167	.002	.833	.002
298.15	101.325	.036	0	.002	.88	.002	.087	.002
298.15	101.325	.109	0	.002	.744	.002	.223	.002
298.15	101.325	.212	0	.002	.596	.002	.368	.002

System: thiophene + heptane + 1-(2-methoxyethyl)-1-methylpiperidinium bis(trifluoromethylsulfonyl)imide; phases: Liquid mixture 2, Liquid mixture 1
Property: Mole fraction of thiophene (Liquid mixture 2); method: Chromatography
Property: Mole fraction of thiophene (Liquid mixture 1); method: Chromatography
Property: Mole fraction of 1-(2-methoxyethyl)-1-methylpiperidinium bis(trifluoromethylsulfonyl)imide (Liquid mixture 1); method: Chromatography
Temperature, K	Pressure, kPa	Mole fraction of 1-(2-methoxyethyl)-1-methylpiperidinium bis(trifluoromethylsulfonyl)imide	Mole fraction of thiophene	uncertainty	Mole fraction of thiophene	uncertainty	Mole fraction of 1-(2-methoxyethyl)-1-methylpiperidinium bis(trifluoromethylsulfonyl)imide	uncertainty
298.15	101.325	.984	0	.002	0	.002	0	.002
298.15	101.325	.357	.624	.002	.697	.002	0	.002
298.15	101.325	.309	.673	.002	.793	.002	0	.002
298.15	101.325	.251	.736	.002	.911	.002	0	.002
298.15	101.325	.235	.756	.002	.949	.002	0	.002
298.15	101.325	.204	.796	.002	1	.002	0	.002
298.15	101.325	.888	.096	.002	.054	.002	0	.002
298.15	101.325	.795	.189	.002	.118	.002	0	.002
298.15	101.325	.676	.307	.002	.209	.002	0	.002
298.15	101.325	.588	.395	.002	.295	.002	0	.002
298.15	101.325	.509	.473	.002	.409	.002	0	.002
298.15	101.325	.479	.503	.002	.457	.002	0	.002
298.15	101.325	.409	.571	.002	.571	.002	0	.002
298.15	101.325	.401	.578	.002	.587	.002	0	.002
