Measured thermophysical data. Isobaric heat capacity measurements of liquid HFE-7200 and HFE-7500 from 245 to 353 K at pressures up to 15 MPa
Source: Fluid Phase Equilib., 2014, 10.1016/j.fluid.2014.03.017
Compound 1: 1-ethoxy-1,1,2,2,3,3,4,4,4-nonafluorobutane, C6H5F9O, purity 99.5%
Compound 2: 2-trifluoromethyl-3-ethoxydodecafluorohexane, C9H5F15O, purity 99.5%
Compound 3: water, H2O, purity 99.8%

System: 1-ethoxy-1,1,2,2,3,3,4,4,4-nonafluorobutane; phases: Liquid
Property: Molar heat capacity at constant pressure, J/K/mol (Liquid); method: Flow calorimetry
Temperature, K	Pressure, kPa	Molar heat capacity at constant pressure, J/K/mol	uncertainty
245.62	100	307.663602052	6.15327204104
254.42	100	317.6989813464	6.353979626928
264.28	100	328.5266274272	6.570532548544
274.14	100	337.2415620776	6.744831241552
283.97	100	343.5796963688	6.871593927376
293.9	100	365.4990774592	7.309981549184
303.85	100	373.685834252	7.47371668504
313.79	100	389.7952589088	7.795905178176
323.6	100	393.7565928408	7.875131856816
333.28	100	407.2251282096	8.144502564192
343.51	100	419.901396792	8.39802793584
353.61	100	431.785398588	8.63570797176
245.64	5000	299.740934188	5.99481868376
254.44	5000	310.0404024112	6.200808048224
264.3	5000	321.6603152784	6.433206305568
274.17	5000	332.4879613592	6.649759227184
283.99	5000	338.8260956504	6.776521913008
293.93	5000	360.7454767408	7.214909534816
303.86	5000	368.9322335336	7.378644670672
313.91	5000	385.0416581904	7.700833163808
323.63	5000	389.0029921224	7.780059842448
333.29	5000	402.4715274912	8.049430549824
343.53	5000	414.8837071448	8.297674142896
353.63	5000	426.7677089408	8.535354178816
245.63	10000	295.5155113272	5.910310226544
254.44	10000	305.8149795504	6.116299591008
264.29	10000	319.547603848	6.39095207696
274.16	10000	328.2625384984	6.565250769968
283.98	10000	340.674718152	6.81349436304
293.92	10000	356.52005388	7.1304010776
303.85	10000	364.7068106728	7.294136213456
313.9	10000	377.9112571128	7.558225142256
323.62	10000	384.7775692616	7.695551385232
333.29	10000	398.2461046304	7.964922092608
343.52	10000	410.9223732128	8.218447464256
353.62	10000	422.8063750088	8.456127500176
245.64	15000	286.536487748	5.73072975496
254.44	15000	297.8923116864	5.957846233728
264.3	15000	307.3995131232	6.147990262464
274.17	15000	318.227159204	6.36454318408
283.99	15000	333.0161392168	6.660322784336
293.93	15000	344.636052084	6.89272104168
303.86	15000	356.52005388	7.1304010776
313.91	15000	369.1963224624	7.383926449248
323.63	15000	384.5134803328	7.690269606656
333.29	15000	399.0383714168	7.980767428336
343.53	15000	407.4892171384	8.149784342768
353.63	15000	420.4295746496	8.408591492992

System: 2-trifluoromethyl-3-ethoxydodecafluorohexane; phases: Liquid
Property: Molar heat capacity at constant pressure, J/K/mol (Liquid); method: Flow calorimetry
Temperature, K	Pressure, kPa	Molar heat capacity at constant pressure, J/K/mol	uncertainty
248.45	100	309.341251656	6.18682503312
254.4	100	329.21860116	6.5843720232
264.24	100	362.347517	7.24695034
273.51	100	393.819987048	7.87639974096
283.77	100	428.60534868	8.5721069736
294.36	100	470.01649348	9.4003298696
304.12	100	490.307954432	9.80615908864
313.92	100	531.719099232	10.63438198464
323.65	100	565.26212652	11.3052425304
333.47	100	587.210033264	11.74420066528
343.39	100	629.035289512	12.58070579024
353.38	100	669.204099968	13.38408199936
248.45	5000	304.786025728	6.09572051456
254.4	5000	325.491598128	6.50983196256
264.24	5000	358.20640252	7.1641280504
273.51	5000	390.921206912	7.81842413824
283.77	5000	428.191237232	8.56382474464
294.36	5000	463.80482176	9.2760964352
304.12	5000	485.338617056	9.70677234112
313.92	5000	528.406207648	10.56812415296
323.65	5000	559.0504548	11.181009096
333.47	5000	578.099581408	11.56199162816
343.39	5000	620.753060552	12.41506121104
353.38	5000	656.780756528	13.13561513056
248.45	10000	300.644911248	6.01289822496
254.4	10000	320.9363722	6.418727444
264.24	10000	354.06528804	7.0813057608
273.51	10000	387.19420388	7.7438840776
283.77	10000	426.120679992	8.52241359984
294.36	10000	461.73426452	9.2346852904
304.12	10000	484.096282712	9.68192565424
313.92	10000	526.749761856	10.53499523712
323.65	10000	547.869445704	10.95738891408
333.47	10000	571.47379824	11.4294759648
343.39	10000	612.88494304	12.2576988608
353.38	10000	653.881976392	13.07763952784
248.45	15000	300.2307998	6.004615996
254.4	15000	319.279926408	6.38559852816
264.24	15000	351.166507904	7.02333015808
273.51	15000	380.98253216	7.6196506432
283.77	15000	414.525559448	8.29051118896
294.36	15000	456.350815696	9.12701631392
304.12	15000	476.2281652	9.524563304
313.92	15000	516.811087104	10.33622174208
323.65	15000	543.314219776	10.86628439552
333.47	15000	565.676237968	11.31352475936
343.39	15000	606.67327132	12.1334654264
353.38	15000	649.740861912	12.99481723824

System: water; phases: Liquid
Property: Molar heat capacity at constant pressure, J/K/mol (Liquid); method: Flow calorimetry
Temperature, K	Pressure, kPa	Molar heat capacity at constant pressure, J/K/mol	uncertainty
294.24	100	74.96158008	1.4992316016
294.24	5000	74.88951896	1.4977903792
294.2	10000	73.70051048	1.4740102096
294.27	15000	74.6733356	1.493466712
303.93	100	75.42997736	1.5085995472
303.97	5000	75.33990096	1.5067980192
303.98	10000	75.05165648	1.5010331296
303.97	15000	76.00646632	1.5201293264
313.68	100	76.43883304	1.5287766608
313.69	5000	76.0244816	1.520489632
313.68	10000	75.9344052	1.518688104
313.69	15000	75.82631352	1.5165262704
323.43	100	76.27669552	1.5255339104
323.43	5000	75.8443288	1.516886576
323.43	10000	75.46600792	1.5093201584
323.43	15000	74.96158008	1.4992316016
333.33	100	75.89837464	1.5179674928
333.33	5000	75.46600792	1.5093201584
333.33	10000	75.23180928	1.5046361856
333.33	15000	75.10570232	1.5021140464
343.28	100	76.31272608	1.5262545216
343.28	5000	75.95242048	1.5190484096
343.28	10000	75.28585512	1.5057171024
343.28	15000	75.06967176	1.5013934352
353.26	100	76.04249688	1.5208499376
353.25	5000	75.8443288	1.516886576
353.25	10000	75.62814544	1.5125629088
353.25	15000	75.24982456	1.5049964912
