Measured thermophysical data. Physical properties and phase equilibria of the system isopropyl acetate +  isopropanol + 1-octyl-3-methyl-imidazolium bis(trifluoromethylsulfonyl)imide
Source: Fluid Phase Equilib., 2010, 10.1016/j.fluid.2009.09.015
Compound 1: 2-propanol, C3H8O, purity 99.5%
Compound 2: 1-methylethyl ethanoate, C5H10O2, purity 99.6%
Compound 3: 1-octyl-3-methylimidazolium bis[(trifluoromethyl)sulfonyl]imide, C14H23F6N3O4S2, purity 99.5%

System: 2-propanol; phases: Liquid
Fixed: Pressure, kPa = 101.325
Property: Mass density, kg/m3 (Liquid); method: Vibrating tube method
Temperature, K	Mass density, kg/m3	uncertainty
298	780.88	.01

System: 2-propanol; phases: Liquid
Fixed: Pressure, kPa = 101.325
Property: Refractive index (Na D-line) (Liquid); method: ATAGO RX-5000 refractometer with Hero Therm thermostat
Temperature, K	Refractive index (Na D-line)	uncertainty
298.15	1.37502	.00004

System: 2-propanol; phases: Liquid, Gas
Property: Normal boiling temperature, K (Liquid); method: Ebulliometric method (Recirculating still)
Normal boiling temperature, K	uncertainty
355.37	.02

System: 2-propanol; phases: Liquid
Fixed: Pressure, kPa = 101.325
Property: Viscosity, Pa*s (Liquid); method: Capillary tube (Ostwald; Ubbelohde) method
Temperature, K	Viscosity, Pa*s	uncertainty
298.15	.002073	.000010365

System: 1-methylethyl ethanoate; phases: Liquid
Fixed: Pressure, kPa = 101.325
Property: Mass density, kg/m3 (Liquid); method: Vibrating tube method
Temperature, K	Mass density, kg/m3	uncertainty
298	866.21	.01

System: 1-methylethyl ethanoate; phases: Liquid
Fixed: Pressure, kPa = 101.325
Property: Refractive index (Na D-line) (Liquid); method: ATAGO RX-5000 refractometer with Hero Therm thermostat
Temperature, K	Refractive index (Na D-line)	uncertainty
298.15	1.3748	.00004

System: 1-methylethyl ethanoate; phases: Liquid, Gas
Property: Normal boiling temperature, K (Liquid); method: Ebulliometric method (Recirculating still)
Normal boiling temperature, K	uncertainty
361.45	.02

System: 1-methylethyl ethanoate; phases: Liquid
Fixed: Pressure, kPa = 101.325
Property: Viscosity, Pa*s (Liquid); method: Capillary tube (Ostwald; Ubbelohde) method
Temperature, K	Viscosity, Pa*s	uncertainty
298.15	.000481	.000002405

System: 1-octyl-3-methylimidazolium bis[(trifluoromethyl)sulfonyl]imide; phases: Liquid
Fixed: Pressure, kPa = 101.325
Property: Mass density, kg/m3 (Liquid); method: Vibrating tube method
Temperature, K	Mass density, kg/m3	uncertainty
298	1320.59	.01

System: 1-octyl-3-methylimidazolium bis[(trifluoromethyl)sulfonyl]imide; phases: Liquid
Fixed: Pressure, kPa = 101.325
Property: Refractive index (Na D-line) (Liquid); method: ATAGO RX-5000 refractometer with Hero Therm thermostat
Temperature, K	Refractive index (Na D-line)	uncertainty
298.15	1.43298	.00004

System: 1-octyl-3-methylimidazolium bis[(trifluoromethyl)sulfonyl]imide; phases: Liquid
Fixed: Pressure, kPa = 101.325
Property: Viscosity, Pa*s (Liquid); method: Capillary tube (Ostwald; Ubbelohde) method
Temperature, K	Viscosity, Pa*s	uncertainty
298.15	.09251	.00046255

System: 2-propanol + 1-methylethyl ethanoate; phases: Liquid
Fixed: Temperature, K = 298.15
Fixed: Pressure, kPa = 101
Property: Mass density, kg/m3 (Liquid); method: Vibrating tube method
Mole fraction of 1-methylethyl ethanoate	Mass density, kg/m3	uncertainty
.1199	793.54	.01
.2041	802.03	.01
.294	810.58	.01
.3802	818.32	.01
.4855	827.39	.01
.5877	835.68	.01
.7138	845.52	.01
.7681	849.64	.01
.8777	857.56	.01

System: 2-propanol + 1-methylethyl ethanoate; phases: Liquid
Fixed: Temperature, K = 298.15
Fixed: Pressure, kPa = 101
Property: Refractive index (Na D-line) (Liquid); method: ATAGO RX-5000 refractometer with Hero Therm thermostat
Mole fraction of 1-methylethyl ethanoate	Refractive index (Na D-line)	uncertainty
.1199	1.37417	.00004
.2041	1.37374	.00004
.294	1.37344	.00004
.3802	1.3733	.00004
.4855	1.37331	.00004
.5877	1.37339	.00004
.7138	1.37369	.00004
.7681	1.37383	.00004
.8777	1.37419	.00004

System: 2-propanol + 1-methylethyl ethanoate; phases: Liquid
Fixed: Temperature, K = 298.15
Fixed: Pressure, kPa = 101
Property: Viscosity, Pa*s (Liquid); method: Capillary tube (Ostwald; Ubbelohde) method
Mole fraction of 1-methylethyl ethanoate	Viscosity, Pa*s	uncertainty
.1199	.001278	.00000639
.2041	.001021	.000005105
.294	.000812	.00000406
.3802	.000722	.00000361
.4855	.000635	.000003175
.5877	.000563	.000002815
.7138	.000538	.00000269
.7681	.000515	.000002575
.8777	.0005	.0000025

System: 2-propanol + 1-methylethyl ethanoate; phases: Liquid
Fixed: Temperature, K = 298.15
Fixed: Pressure, kPa = 101
Property: Excess molar volume, m3/mol (Liquid); method: Calculated with densities of this investigation
Mole fraction of 1-methylethyl ethanoate	Excess molar volume, m3/mol	uncertainty
.1199	.000000213	.000000002
.2041	.000000311	.000000002
.294	.000000388	.000000002
.3802	.000000442	.000000002
.4855	.00000046	.000000002
.5877	.000000452	.000000002
.7138	.000000376	.000000002
.7681	.000000322	.000000002
.8777	.000000203	.000000002

System: 2-propanol + 1-methylethyl ethanoate; phases: Liquid, Gas
Fixed: Pressure, kPa = 101.325
Property: Mole fraction of 1-methylethyl ethanoate (Liquid); method: densities and refractive indices measurements
Temperature, K	Mole fraction of 1-methylethyl ethanoate	uncertainty
355.26	.0105	.002
355.12	.0236	.002
354.84	.0528	.002
354.67	.0813	.002
354.52	.0907	.002
354.21	.1358	.002
354.05	.1661	.002
353.93	.1913	.002
353.83	.2177	.002
353.75	.2457	.002
353.67	.2992	.002
353.65	.329	.002
353.66	.3571	.002
353.72	.408	.002
353.8	.4482	.002
353.92	.4858	.002
354.08	.5199	.002
354.3	.5629	.002
354.45	.5893	.002
354.83	.6371	.002
355.25	.6808	.002
355.55	.714	.002
355.92	.743	.002
356.32	.7714	.002
356.67	.7952	.002
357.04	.8176	.002
357.4	.8384	.002
357.86	.8602	.002
358.46	.8879	.002
358.72	.8977	.002
358.97	.9115	.002
359.33	.9246	.002
359.39	.9278	.002
359.62	.9366	.002
359.72	.9408	.002
360.16	.9575	.002
360.64	.9739	.002
361.12	.9906	.002

System: 2-propanol + 1-methylethyl ethanoate; phases: Gas, Liquid
Fixed: Pressure, kPa = 101.325
Property: Mole fraction of 1-methylethyl ethanoate (Gas); method: densities and refractive indices measurements
Temperature, K	Mole fraction of 1-methylethyl ethanoate	uncertainty
355.26	.0155	.002
355.12	.0333	.002
354.84	.0713	.002
354.67	.0947	.002
354.52	.1159	.002
354.21	.1652	.002
354.05	.1947	.002
353.93	.2187	.002
353.83	.2417	.002
353.75	.2663	.002
353.67	.3075	.002
353.65	.3299	.002
353.66	.3509	.002
353.72	.3873	.002
353.8	.4154	.002
353.92	.4443	.002
354.08	.4656	.002
354.3	.4961	.002
354.45	.5159	.002
354.83	.556	.002
355.25	.5889	.002
355.55	.6183	.002
355.92	.6446	.002
356.32	.6703	.002
356.67	.6959	.002
357.04	.7203	.002
357.4	.7428	.002
357.86	.7708	.002
358.46	.8082	.002
358.72	.827	.002
358.97	.8409	.002
359.33	.8642	.002
359.39	.8662	.002
359.62	.8824	.002
359.72	.888	.002
360.16	.9157	.002
360.64	.9464	.002
361.12	.9776	.002

System: 1-methylethyl ethanoate + 1-octyl-3-methylimidazolium bis[(trifluoromethyl)sulfonyl]imide; phases: Liquid
Fixed: Temperature, K = 298.15
Fixed: Pressure, kPa = 101
Property: Mass density, kg/m3 (Liquid); method: Vibrating tube method
Mole fraction of 1-methylethyl ethanoate	Mass density, kg/m3	uncertainty
.0415	1314.43	.01
.0984	1305.77	.01
.1644	1294.72	.01
.2055	1287.14	.01
.301	1267.67	.01
.3956	1244.68	.01
.4996	1214.35	.01
.5837	1184.33	.01
.7048	1129.29	.01
.8036	1068.65	.01
.8991	988.94	.01

System: 1-methylethyl ethanoate + 1-octyl-3-methylimidazolium bis[(trifluoromethyl)sulfonyl]imide; phases: Liquid
Fixed: Temperature, K = 298.15
Fixed: Pressure, kPa = 101
Property: Refractive index (Na D-line) (Liquid); method: ATAGO RX-5000 refractometer with Hero Therm thermostat
Mole fraction of 1-methylethyl ethanoate	Refractive index (Na D-line)	uncertainty
.0415	1.43222	.00004
.0984	1.4313	.00004
.1644	1.43009	.00004
.2055	1.42923	.00004
.301	1.42702	.00004
.3956	1.42458	.00004
.4996	1.42091	.00004
.5837	1.41742	.00004
.7048	1.41083	.00004
.8036	1.40324	.00004
.8991	1.39275	.00004

System: 1-methylethyl ethanoate + 1-octyl-3-methylimidazolium bis[(trifluoromethyl)sulfonyl]imide; phases: Liquid
Fixed: Temperature, K = 298.15
Fixed: Pressure, kPa = 101
Property: Viscosity, Pa*s (Liquid); method: Capillary tube (Ostwald; Ubbelohde) method
Mole fraction of 1-methylethyl ethanoate	Viscosity, Pa*s	uncertainty
.0415	.08181	.00040905
.0984	.07033	.00035165
.1644	.05816	.0002908
.2055	.05189	.00025945
.301	.03825	.00019125
.3956	.02657	.00013285
.4996	.01709	.00008545
.5837	.01142	.0000571
.7048	.005785	.000028925
.8036	.002993	.000014965
.8991	.001389	.000006945

System: 1-methylethyl ethanoate + 1-octyl-3-methylimidazolium bis[(trifluoromethyl)sulfonyl]imide; phases: Liquid
Fixed: Temperature, K = 298.15
Fixed: Pressure, kPa = 101
Property: Excess molar volume, m3/mol (Liquid); method: Calculated with densities of this investigation
Mole fraction of 1-methylethyl ethanoate	Excess molar volume, m3/mol	uncertainty
.0415	-.000000051	.000000002
.0984	-.000000222	.000000002
.1644	-.000000403	.000000002
.2055	-.000000491	.000000002
.301	-.000000732	.000000002
.3956	-.000000912	.000000002
.4996	-.000001125	.000000002
.5837	-.000001243	.000000002
.7048	-.000001356	.000000002
.8036	-.000001277	.000000002
.8991	-.000000978	.000000002

System: 1-methylethyl ethanoate + 1-octyl-3-methylimidazolium bis[(trifluoromethyl)sulfonyl]imide; phases: Liquid, Gas
Fixed: Pressure, kPa = 101.325
Property: Mole fraction of 1-methylethyl ethanoate (Liquid); method: densities and refractive indices measurements
Temperature, K	Mole fraction of 1-methylethyl ethanoate	uncertainty
361.54	.9973	.002
361.69	.9861	.002
361.99	.965	.002
362.28	.9404	.002
362.74	.9143	.002
363.25	.8899	.002
363.82	.8701	.002
364.03	.8645	.002
364.68	.8459	.002
365.25	.8277	.002
365.93	.813	.002
366.18	.8063	.002
367.1	.7833	.002
368.13	.7639	.002
369.43	.7388	.002
370.14	.7249	.002
371.43	.7039	.002
372.73	.6847	.002
374.35	.6572	.002
375.97	.6337	.002
377.88	.6125	.002
379.45	.5897	.002
383.65	.5448	.002
388.15	.4919	.002
396.63	.4261	.002
402.2	.3896	.002
410.75	.3358	.002
420.99	.2844	.002

System: 2-propanol + 1-octyl-3-methylimidazolium bis[(trifluoromethyl)sulfonyl]imide; phases: Liquid
Fixed: Temperature, K = 298.15
Fixed: Pressure, kPa = 101
Property: Mass density, kg/m3 (Liquid); method: Vibrating tube method
Mole fraction of 2-propanol	Mass density, kg/m3	uncertainty
.0331	1316.64	.01
.066	1312.4	.01
.105	1307.22	.01
.1823	1295.84	.01
.2732	1280.29	.01
.3284	1269.48	.01
.4097	1250.88	.01
.5055	1224.13	.01
.5848	1196.42	.01
.6747	1155.99	.01
.7832	1087.54	.01
.8966	972.52	.01

System: 2-propanol + 1-octyl-3-methylimidazolium bis[(trifluoromethyl)sulfonyl]imide; phases: Liquid
Fixed: Temperature, K = 298.15
Fixed: Pressure, kPa = 101
Property: Refractive index (Na D-line) (Liquid); method: ATAGO RX-5000 refractometer with Hero Therm thermostat
Mole fraction of 2-propanol	Refractive index (Na D-line)	uncertainty
.0331	1.43251	.00004
.066	1.43205	.00004
.105	1.43149	.00004
.1823	1.43031	.00004
.2732	1.42862	.00004
.3284	1.42746	.00004
.4097	1.42551	.00004
.5055	1.42269	.00004
.5848	1.41988	.00004
.6747	1.41568	.00004
.7832	1.40856	.00004
.8966	1.39645	.00004

System: 2-propanol + 1-octyl-3-methylimidazolium bis[(trifluoromethyl)sulfonyl]imide; phases: Liquid
Fixed: Temperature, K = 298.15
Fixed: Pressure, kPa = 101
Property: Viscosity, Pa*s (Liquid); method: Capillary tube (Ostwald; Ubbelohde) method
Mole fraction of 2-propanol	Viscosity, Pa*s	uncertainty
.0331	.08524	.0004262
.066	.0781	.0003905
.105	.07148	.0003574
.1823	.06013	.00030065
.2732	.04798	.0002399
.3284	.03987	.00019935
.4097	.03313	.00016565
.5055	.02479	.00012395
.5848	.01909	.00009545
.6747	.01379	.00006895
.7832	.008606	.00004303
.8966	.004615	.000023075

System: 2-propanol + 1-octyl-3-methylimidazolium bis[(trifluoromethyl)sulfonyl]imide; phases: Liquid
Fixed: Temperature, K = 298.15
Fixed: Pressure, kPa = 101
Property: Excess molar volume, m3/mol (Liquid); method: Calculated with densities of this investigation
Mole fraction of 2-propanol	Excess molar volume, m3/mol	uncertainty
.0331	.000000009	.000000002
.066	.000000042	.000000002
.105	.000000045	.000000002
.1823	.000000046	.000000002
.2732	.000000038	.000000002
.3284	.00000001	.000000002
.4097	-.000000002	.000000002
.5055	-.000000056	.000000002
.5848	-.000000115	.000000002
.6747	-.000000174	.000000002
.7832	-.000000268	.000000002
.8966	-.000000278	.000000002

System: 2-propanol + 1-octyl-3-methylimidazolium bis[(trifluoromethyl)sulfonyl]imide; phases: Liquid, Gas
Fixed: Pressure, kPa = 101.325
Property: Mole fraction of 2-propanol (Liquid); method: densities and refractive indices measurements
Temperature, K	Mole fraction of 2-propanol	uncertainty
355.46	.9949	.002
355.59	.9847	.002
355.76	.9707	.002
356.15	.9458	.002
356.59	.9154	.002
357.2	.8812	.002
357.66	.8596	.002
358.45	.8309	.002
358.98	.8042	.002
359.68	.7809	.002
360.23	.7637	.002
360.75	.7448	.002
361.8	.7123	.002
362.97	.6855	.002
363.94	.6675	.002
365.43	.6364	.002
366.56	.6083	.002
367.54	.5968	.002
369.95	.5558	.002
372.24	.5214	.002
375.06	.4867	.002
375.86	.4789	.002
380.66	.4337	.002
388.11	.3739	.002
391.6	.3532	.002
401.6	.3174	.002

System: 2-propanol + 1-methylethyl ethanoate + 1-octyl-3-methylimidazolium bis[(trifluoromethyl)sulfonyl]imide; phases: Liquid
Fixed: Temperature, K = 298.15
Fixed: Pressure, kPa = 101
Property: Mass density, kg/m3 (Liquid); method: Vibrating tube method
Mole fraction of 1-methylethyl ethanoate	Mole fraction of 2-propanol	Mass density, kg/m3	uncertainty
.892	.0974	875.65	.01
.8113	.1702	882.78	.01
.7114	.2602	892.03	.01
.6184	.3441	900.99	.01
.488	.4617	913.74	.01
.3937	.5466	923.38	.01
.2909	.6393	934.12	.01
.1941	.7266	944.36	.01
.1537	.7631	948.81	.01
.1093	.8031	953.68	.01
.0627	.8451	958.89	.01
.8967	.0827	890.79	.01
.7934	.1654	914.48	.01
.7073	.2344	933.82	.01
.6146	.3085	954.03	.01
.5279	.3779	972.32	.01
.428	.458	992.71	.01
.3183	.5458	1014.47	.01
.2383	.6099	1029.89	.01
.1933	.6459	1038.26	.01
.1533	.6779	1045.66	.01
.0887	.7296	1057.64	.01
.9007	.0696	904.13	.01
.802	.1388	938.58	.01
.7031	.2081	970.59	.01
.585	.2909	1005.69	.01
.5079	.345	1027.02	.01
.3948	.4243	1056.01	.01
.292	.4963	1080.38	.01
.1975	.5625	1101.55	.01
.1489	.5966	1112.07	.01
.0986	.6319	1122.39	.01
.0472	.6679	1132.75	.01
.8904	.0661	922.36	.01
.8009	.1201	962.38	.01
.7424	.1553	986.32	.01
.5906	.2469	1041.17	.01
.4949	.3046	1071.2	.01
.3999	.3619	1098.22	.01
.2991	.4227	1124.35	.01
.2127	.4748	1144.77	.01
.1552	.5095	1157.65	.01
.1056	.5394	1168.21	.01
.0547	.5701	1178.68	.01
.8956	.0523	933.76	.01
.7937	.1033	988.35	.01
.693	.1537	1034.27	.01
.5907	.2049	1074.25	.01
.4922	.2542	1107.65	.01
.3975	.3016	1135.58	.01
.3016	.3496	1160.95	.01
.2135	.3937	1182.23	.01
.1272	.4369	1201.18	.01
.0416	.4798	1218.27	.01
.8866	.0458	952.21	.01
.8043	.0789	1002.3	.01
.7088	.1175	1051.09	.01
.5918	.1647	1100.41	.01
.4923	.2048	1135.35	.01
.3766	.2514	1170.05	.01
.2959	.284	1191.19	.01
.2005	.3225	1213.5	.01
.1568	.3401	1222.94	.01
.1067	.3603	1232.99	.01
.0608	.3788	1241.89	.01
.9017	.0298	953.77	.01
.8013	.0603	1022.36	.01
.6943	.0928	1080.14	.01
.602	.1208	1120.28	.01
.4865	.1559	1161.89	.01
.3902	.1851	1190.95	.01
.2858	.2169	1217.73	.01
.1847	.2475	1240.44	.01
.1461	.2592	1248.21	.01
.0868	.2772	1259.61	.01
.0295	.2947	1269.74	.01
.8976	.0205	968.87	.01
.7983	.0404	1042.03	.01
.7099	.0581	1092.84	.01
.5995	.0801	1142.98	.01
.4943	.1012	1181.24	.01
.3958	.1209	1211.01	.01
.303	.1395	1234.83	.01
.2083	.1584	1255.82	.01
.1601	.1681	1265.5	.01
.1054	.179	1275.69	.01
.0445	.1912	1286.11	.01
.8963	.01	981.37	.01
.7159	.0275	1107.75	.01
.5873	.04	1166.73	.01
.4849	.0499	1203.28	.01
.391	.059	1230.69	.01
.2921	.0686	1254.99	.01
.1953	.078	1275.35	.01
.1425	.0831	1285.04	.01
.109	.0863	1290.97	.01
.0552	.0915	1299.86	.01

System: 2-propanol + 1-methylethyl ethanoate + 1-octyl-3-methylimidazolium bis[(trifluoromethyl)sulfonyl]imide; phases: Liquid
Fixed: Temperature, K = 298.15
Fixed: Pressure, kPa = 101
Property: Refractive index (Na D-line) (Liquid); method: ATAGO RX-5000 refractometer with Hero Therm thermostat
Mole fraction of 1-methylethyl ethanoate	Mole fraction of 2-propanol	Refractive index (Na D-line)	uncertainty
.892	.0974	1.37675	.00004
.8113	.1702	1.37831	.00004
.7114	.2602	1.38033	.00004
.6184	.3441	1.38225	.00004
.488	.4617	1.38497	.00004
.3937	.5466	1.38712	.00004
.2909	.6393	1.38927	.00004
.1941	.7266	1.3914	.00004
.1537	.7631	1.39228	.00004
.1093	.8031	1.39326	.00004
.0627	.8451	1.39442	.00004
.8967	.0827	1.37898	.00004
.7934	.1654	1.38314	.00004
.7073	.2344	1.38608	.00004
.6146	.3085	1.38932	.00004
.5279	.3779	1.39225	.00004
.428	.458	1.39541	.00004
.3183	.5458	1.39861	.00004
.2383	.6099	1.40081	.00004
.1933	.6459	1.40216	.00004
.1533	.6779	1.40312	.00004
.0887	.7296	1.40489	.00004
.9007	.0696	1.3809	.00004
.802	.1388	1.38621	.00004
.7031	.2081	1.39096	.00004
.585	.2909	1.39603	.00004
.5079	.345	1.39914	.00004
.3948	.4243	1.40303	.00004
.292	.4963	1.40644	.00004
.1975	.5625	1.40898	.00004
.1489	.5966	1.41044	.00004
.0986	.6319	1.4118	.00004
.0472	.6679	1.41305	.00004
.8904	.0661	1.38355	.00004
.8009	.1201	1.38943	.00004
.7424	.1553	1.3929	.00004
.5906	.2469	1.40073	.00004
.4949	.3046	1.4044	.00004
.3999	.3619	1.40786	.00004
.2991	.4227	1.41117	.00004
.2127	.4748	1.4137	.00004
.1552	.5095	1.41523	.00004
.1056	.5394	1.41657	.00004
.0547	.5701	1.41784	.00004
.8956	.0523	1.38522	.00004
.7937	.1033	1.39295	.00004
.693	.1537	1.39925	.00004
.5907	.2049	1.40441	.00004
.4922	.2542	1.4086	.00004
.3975	.3016	1.41207	.00004
.3016	.3496	1.41525	.00004
.2135	.3937	1.41787	.00004
.1272	.4369	1.42004	.00004
.0416	.4798	1.42202	.00004
.8866	.0458	1.38786	.00004
.8043	.0789	1.39477	.00004
.7088	.1175	1.40129	.00004
.5918	.1647	1.40754	.00004
.4923	.2048	1.41184	.00004
.3766	.2514	1.41601	.00004
.2959	.284	1.41854	.00004
.2005	.3225	1.42109	.00004
.1568	.3401	1.42223	.00004
.1067	.3603	1.42351	.00004
.0608	.3788	1.42448	.00004
.9017	.0298	1.3879	.00004
.8013	.0603	1.39743	.00004
.6943	.0928	1.40488	.00004
.602	.1208	1.40989	.00004
.4865	.1559	1.41487	.00004
.3902	.1851	1.4183	.00004
.2858	.2169	1.42143	.00004
.1847	.2475	1.42417	.00004
.1461	.2592	1.42509	.00004
.0868	.2772	1.42643	.00004
.0295	.2947	1.42751	.00004
.8976	.0205	1.38997	.00004
.7983	.0404	1.40001	.00004
.7099	.0581	1.40641	.00004
.5995	.0801	1.41258	.00004
.4943	.1012	1.41712	.00004
.3958	.1209	1.42064	.00004
.303	.1395	1.42336	.00004
.2083	.1584	1.4259	.00004
.1601	.1681	1.42689	.00004
.1054	.179	1.42804	.00004
.0445	.1912	1.4292	.00004
.8963	.01	1.39172	.00004
.7159	.0275	1.40841	.00004
.5873	.04	1.41529	.00004
.4849	.0499	1.41957	.00004
.391	.059	1.4228	.00004
.2921	.0686	1.42559	.00004
.1953	.078	1.42781	.00004
.1425	.0831	1.42892	.00004
.109	.0863	1.42962	.00004
.0552	.0915	1.4306	.00004

System: 2-propanol + 1-methylethyl ethanoate + 1-octyl-3-methylimidazolium bis[(trifluoromethyl)sulfonyl]imide; phases: Liquid
Fixed: Temperature, K = 298.15
Fixed: Pressure, kPa = 101
Property: Viscosity, Pa*s (Liquid); method: Capillary tube (Ostwald; Ubbelohde) method
Mole fraction of 1-methylethyl ethanoate	Mole fraction of 2-propanol	Viscosity, Pa*s	uncertainty
.892	.0974	.000487	.000002435
.8113	.1702	.000556	.00000278
.7114	.2602	.000688	.00000344
.6184	.3441	.000818	.00000409
.488	.4617	.001106	.00000553
.3937	.5466	.001371	.000006855
.2909	.6393	.001819	.000009095
.1941	.7266	.002391	.000011955
.1537	.7631	.00273	.00001365
.1093	.8031	.003122	.00001561
.0627	.8451	.003513	.000017565
.8967	.0827	.000633	.000003165
.7934	.1654	.000814	.00000407
.7073	.2344	.001018	.00000509
.6146	.3085	.001264	.00000632
.5279	.3779	.001644	.00000822
.428	.458	.00211	.00001055
.3183	.5458	.003	.000015
.2383	.6099	.003654	.00001827
.1933	.6459	.00437	.00002185
.1533	.6779	.004867	.000024335
.0887	.7296	.005982	.00002991
.9007	.0696	.00069	.00000345
.802	.1388	.000952	.00000476
.7031	.2081	.001356	.00000678
.585	.2909	.001962	.00000981
.5079	.345	.002557	.000012785
.3948	.4243	.003554	.00001777
.292	.4963	.005075	.000025375
.1975	.5625	.006747	.000033735
.1489	.5966	.007896	.00003948
.0986	.6319	.00916	.0000458
.0472	.6679	.01082	.0000541
.8904	.0661	.000805	.000004025
.8009	.1201	.001144	.00000572
.7424	.1553	.001494	.00000747
.5906	.2469	.002591	.000012955
.4949	.3046	.0038	.000019
.3999	.3619	.005096	.00002548
.2991	.4227	.007236	.00003618
.2127	.4748	.009469	.000047345
.1552	.5095	.01137	.00005685
.1056	.5394	.0132	.000066
.0547	.5701	.01539	.00007695
.8956	.0523	.000879	.000004395
.7937	.1033	.001465	.000007325
.693	.1537	.0023	.0000115
.5907	.2049	.003576	.00001788
.4922	.2542	.0052	.000026
.3975	.3016	.007289	.000036445
.3016	.3496	.01012	.0000506
.2135	.3937	.01341	.00006705
.1272	.4369	.01757	.00008785
.0416	.4798	.02244	.0001122
.8866	.0458	.001031	.000005155
.8043	.0789	.001635	.000008175
.7088	.1175	.002662	.00001331
.5918	.1647	.004353	.000021765
.4923	.2048	.00682	.0000341
.3766	.2514	.01045	.00005225
.2959	.284	.01389	.00006945
.2005	.3225	.01883	.00009415
.1568	.3401	.0217	.0001085
.1067	.3603	.02497	.00012485
.0608	.3788	.02873	.00014365
.9017	.0298	.001031	.000005155
.8013	.0603	.001891	.000009455
.6943	.0928	.003497	.000017485
.602	.1208	.005264	.00002632
.4865	.1559	.009044	.00004522
.3902	.1851	.01307	.00006535
.2858	.2169	.01903	.00009515
.1847	.2475	.02696	.0001348
.1461	.2592	.03055	.00015275
.0868	.2772	.03508	.0001754
.0295	.2947	.04179	.00020895
.8976	.0205	.001171	.000005855
.7983	.0404	.002266	.00001133
.7099	.0581	.003917	.000019585
.5995	.0801	.006834	.00003417
.4943	.1012	.01124	.0000562
.3958	.1209	.01665	.00008325
.303	.1395	.02351	.00011755
.2083	.1584	.03198	.0001599
.1601	.1681	.03738	.0001869
.1054	.179	.04357	.00021785
.0445	.1912	.05226	.0002613
.8963	.01	.001308	.00000654
.7159	.0275	.004633	.000023165
.5873	.04	.009168	.00004584
.4849	.0499	.01471	.00007355
.391	.059	.02148	.0001074
.2921	.0686	.03138	.0001569
.1953	.078	.04231	.00021155
.1425	.0831	.05013	.00025065
.109	.0863	.05446	.0002723
.0552	.0915	.0624	.000312

System: 2-propanol + 1-methylethyl ethanoate + 1-octyl-3-methylimidazolium bis[(trifluoromethyl)sulfonyl]imide; phases: Liquid
Fixed: Temperature, K = 298.15
Fixed: Pressure, kPa = 101
Property: Excess molar volume, m3/mol (Liquid); method: Calculated with densities of this investigation
Mole fraction of 1-methylethyl ethanoate	Mole fraction of 2-propanol	Excess molar volume, m3/mol	uncertainty
.892	.0974	-.000000001	.000000002
.8113	.1702	.000000008	.000000002
.7114	.2602	-.000000013	.000000002
.6184	.3441	-.000000051	.000000002
.488	.4617	-.000000085	.000000002
.3937	.5466	-.000000131	.000000002
.2909	.6393	-.000000176	.000000002
.1941	.7266	-.000000205	.000000002
.1537	.7631	-.000000228	.000000002
.1093	.8031	-.000000245	.000000002
.0627	.8451	-.000000267	.000000002
.8967	.0827	-.000000124	.000000002
.7934	.1654	-.000000212	.000000002
.7073	.2344	-.000000289	.000000002
.6146	.3085	-.000000352	.000000002
.5279	.3779	-.000000383	.000000002
.428	.458	-.00000039	.000000002
.3183	.5458	-.000000391	.000000002
.2383	.6099	-.00000038	.000000002
.1933	.6459	-.000000351	.000000002
.1533	.6779	-.000000332	.000000002
.0887	.7296	-.000000324	.000000002
.9007	.0696	-.000000258	.000000002
.802	.1388	-.000000408	.000000002
.7031	.2081	-.00000052	.000000002
.585	.2909	-.00000058	.000000002
.5079	.345	-.000000595	.000000002
.3948	.4243	-.000000547	.000000002
.292	.4963	-.000000467	.000000002
.1975	.5625	-.0000004	.000000002
.1489	.5966	-.000000377	.000000002
.0986	.6319	-.000000314	.000000002
.0472	.6679	-.000000269	.000000002
.8904	.0661	-.000000408	.000000002
.8009	.1201	-.000000586	.000000002
.7424	.1553	-.000000674	.000000002
.5906	.2469	-.000000749	.000000002
.4949	.3046	-.000000713	.000000002
.3999	.3619	-.000000645	.000000002
.2991	.4227	-.00000055	.000000002
.2127	.4748	-.000000437	.000000002
.1552	.5095	-.000000375	.000000002
.1056	.5394	-.000000311	.000000002
.0547	.5701	-.000000254	.000000002
.8956	.0523	-.000000521	.000000002
.7937	.1033	-.000000762	.000000002
.693	.1537	-.000000893	.000000002
.5907	.2049	-.00000092	.000000002
.4922	.2542	-.000000867	.000000002
.3975	.3016	-.000000721	.000000002
.3016	.3496	-.000000571	.000000002
.2135	.3937	-.000000465	.000000002
.1272	.4369	-.000000348	.000000002
.0416	.4798	-.0000002	.000000002
.8866	.0458	-.000000647	.000000002
.8043	.0789	-.000000868	.000000002
.7088	.1175	-.000000983	.000000002
.5918	.1647	-.000000982	.000000002
.4923	.2048	-.000000886	.000000002
.3766	.2514	-.000000737	.000000002
.2959	.284	-.000000617	.000000002
.2005	.3225	-.000000454	.000000002
.1568	.3401	-.000000391	.000000002
.1067	.3603	-.000000278	.000000002
.0608	.3788	-.000000206	.000000002
.9017	.0298	-.000000696	.000000002
.8013	.0603	-.000000996	.000000002
.6943	.0928	-.00000113	.000000002
.602	.1208	-.000001073	.000000002
.4865	.1559	-.000000946	.000000002
.3902	.1851	-.000000808	.000000002
.2858	.2169	-.000000587	.000000002
.1847	.2475	-.000000418	.000000002
.1461	.2592	-.000000329	.000000002
.0868	.2772	-.000000222	.000000002
.0295	.2947	-.00000009	.000000002
.8976	.0205	-.000000817	.000000002
.7983	.0404	-.000001127	.000000002
.7099	.0581	-.000001222	.000000002
.5995	.0801	-.00000115	.000000002
.4943	.1012	-.000001001	.000000002
.3958	.1209	-.000000849	.000000002
.303	.1395	-.000000671	.000000002
.2083	.1584	-.000000469	.000000002
.1601	.1681	-.000000378	.000000002
.1054	.179	-.000000266	.000000002
.0445	.1912	-.000000117	.000000002
.8963	.01	-.000000901	.000000002
.7159	.0275	-.00000128	.000000002
.5873	.04	-.000001158	.000000002
.4849	.0499	-.000001034	.000000002
.391	.059	-.000000847	.000000002
.2921	.0686	-.000000632	.000000002
.1953	.078	-.000000433	.000000002
.1425	.0831	-.000000272	.000000002
.109	.0863	-.000000204	.000000002
.0552	.0915	-.000000085	.000000002

System: 2-propanol + 1-methylethyl ethanoate + 1-octyl-3-methylimidazolium bis[(trifluoromethyl)sulfonyl]imide; phases: Liquid, Gas
Fixed: Pressure, kPa = 101.325
Property: Mole fraction of 2-propanol (Liquid); method: densities and refractive indices measurements
Property: Mole fraction of 1-methylethyl ethanoate (Gas); method: densities and refractive indices measurements
Property: Mole fraction of 2-propanol (Gas); method: densities and refractive indices measurements
Temperature, K	Mole fraction of 1-methylethyl ethanoate	Mole fraction of 2-propanol	uncertainty	Mole fraction of 1-methylethyl ethanoate	uncertainty	Mole fraction of 2-propanol	uncertainty
355.88	.1429	.76	.002	.168	.002	.832	.002
356.13	.0356	.8923	.002	.0453	.002	.9547	.002
356.14	.1834	.7003	.002	.2062	.002	.7938	.002
356.16	.043	.8745	.002	.0634	.002	.9366	.002
356.87	.42	.4423	.002	.4356	.002	.5644	.002
357.62	.4668	.3846	.002	.4914	.002	.5086	.002
357.98	.3227	.4972	.002	.3444	.002	.6556	.002
358.07	.2645	.5512	.002	.3103	.002	.6897	.002
358.62	.0461	.7585	.002	.0815	.002	.9185	.002
358.71	.1856	.6112	.002	.2288	.002	.7712	.002
358.93	.1514	.6371	.002	.1782	.002	.8218	.002
355.89	.1032	.8099	.002	.1204	.002	.8796	.002
359.15	.1053	.6801	.002	.1306	.002	.8694	.002
359.66	.329	.4525	.002	.3828	.002	.6172	.002
360.33	.0129	.7436	.002	.0504	.002	.9496	.002
360.73	.5622	.251	.002	.5931	.002	.4069	.002
360.84	.4134	.3658	.002	.5142	.002	.4858	.002
361.01	.5149	.2714	.002	.5699	.002	.4301	.002
361.11	.3846	.3784	.002	.4667	.002	.5333	.002
361.9	.1079	.6075	.002	.1661	.002	.8339	.002
362.19	.0389	.6672	.002	.0628	.002	.9372	.002
362.69	.1188	.5745	.002	.0832	.002	.9168	.002
355.93	.3332	.5513	.002	.3627	.002	.6373	.002
362.82	.6069	.1892	.002	.7461	.002	.2539	.002
364.45	.6755	.1221	.002	.8616	.002	.1384	.002
364.7	.1466	.5213	.002	.2523	.002	.7477	.002
364.86	.1181	.5483	.002	.2444	.002	.7556	.002
364.97	.4717	.2502	.002	.6291	.002	.3709	.002
365.06	.7395	.0724	.002	.9451	.002	.0549	.002
365.17	.1816	.4842	.002	.2941	.002	.7059	.002
365.34	.6453	.1305	.002	.8463	.002	.1537	.002
365.5	.071	.58	.002	.1749	.002	.8251	.002
365.57	.6932	.0859	.002	.9048	.002	.0952	.002
355.97	.3082	.5733	.002	.3343	.002	.6657	.002
366.24	.0065	.6245	.002	.0915	.002	.9085	.002
366.67	.7802	.0102	.002	.9861	.002	.0139	.002
367.59	.1776	.4531	.002	.2993	.002	.7007	.002
367.97	.1152	.485	.002	.1624	.002	.8376	.002
369.06	.4423	.2248	.002	.6653	.002	.3347	.002
369.07	.3909	.2652	.002	.6143	.002	.3857	.002
369.2	.0235	.5563	.002	.0944	.002	.9056	.002
369.65	.4091	.2412	.002	.6325	.002	.3675	.002
370.13	.2176	.3836	.002	.3517	.002	.6483	.002
370.14	.4475	.2112	.002	.6944	.002	.3056	.002
355.98	.158	.7353	.002	.1862	.002	.8138	.002
371.32	.4617	.1905	.002	.7342	.002	.2658	.002
371.49	.0573	.5056	.002	.1978	.002	.8022	.002
371.83	.6678	.0256	.002	.9778	.002	.0222	.002
373.56	.2201	.3524	.002	.4254	.002	.5746	.002
375.76	.0932	.4235	.002	.2489	.002	.7511	.002
376.4	.4773	.1295	.002	.8325	.002	.1675	.002
377.13	.3161	.2328	.002	.5805	.002	.4195	.002
377.32	.0003	.4672	.002	.0804	.002	.9196	.002
378.91	.236	.3013	.002	.5345	.002	.4655	.002
379.69	.1059	.3763	.002	.2575	.002	.7425	.002
356.02	.2498	.6305	.002	.292	.002	.708	.002
381.56	.5183	.0423	.002	.9589	.002	.0411	.002
381.96	.4824	.0752	.002	.9627	.002	.0373	.002
382.24	.165	.2959	.002	.3388	.002	.6612	.002
382.5	.001	.4195	.002	.1105	.002	.8895	.002
383.45	.3372	.1872	.002	.7801	.002	.2199	.002
383.46	.1319	.3215	.002	.2648	.002	.7352	.002
386.38	.1408	.2889	.002	.3524	.002	.6476	.002
387.32	.1712	.2435	.002	.371	.002	.629	.002
387.8	.0483	.3502	.002	.1161	.002	.8839	.002
387.98	.001	.3853	.002	.1406	.002	.8594	.002
356.04	.0784	.8336	.002	.0994	.002	.9006	.002
393.63	.2349	.1413	.002	.4711	.002	.5289	.002
395.98	.0488	.31	.002	.279	.002	.721	.002
396.59	.0787	.3056	.002	.3634	.002	.6366	.002
402.3	.3682	.021	.002	.9999	.002	.0001	.002
406.18	.0011	.3116	.002	.2268	.002	.7732	.002
406.84	.1685	.1434	.002	.652	.002	.348	.002
408.17	.2627	.0801	.002	.9701	.002	.0299	.002
410.29	.1135	.1705	.002	.5133	.002	.4867	.002
412.25	.1008	.1941	.002	.4588	.002	.5412	.002
416.34	.0579	.2008	.002	.3609	.002	.6391	.002
356.1	.2046	.6751	.002	.2311	.002	.7689	.002
421.62	.1419	.1023	.002	.4712	.002	.5288	.002
430.23	.1489	.0863	.002	.7686	.002	.2314	.002
433.01	.0004	.2382	.002	.5757	.002	.4243	.002
435	.0643	.1756	.002	.811	.002	.189	.002
447.13	.0613	.13	.002	.7121	.002	.2879	.002
356.1	.2277	.6503	.002	.2615	.002	.7385	.002
