Measured thermophysical data. Synthesis and physico-chemical properties of two protic ionic liquids based on stearate anion
Source: Fluid Phase Equilib., 2014, 10.1016/j.fluid.2014.05.043
Compound 1: stearic acid, C18H36O2
Compound 2: 2-aminoethanol, C2H7NO
Compound 3: bis(2-hydroxyethyl)amine, C4H11NO2
Compound 4: 2-hydroxyethylammonium stearate, C20H43NO3
Compound 5: bis(2-hydroxyethyl)ammonium stearate, C23H49NO4
Compound 6: water, H2O

System: 2-hydroxyethylammonium stearate + water; phases: Liquid
Fixed: Temperature, K = 293
Fixed: Pressure, kPa = 101
Property: Molar conductivity, S*m2/mol (Liquid); method: Direct current cell with electrodes
Molality, mol/kg of 2-hydroxyethylammonium stearate	Molar conductivity, S*m2/mol	uncertainty
.0000745	.014297	.000357
.0000707	.015267	.000382
.000067	.016342	.000409
.0000638	.017218	.00043
.0000609	.018263	.000457
.0000581	.019361	.000484
.0000556	.020351	.000509
.0000533	.021408	.000535
.0000513	.022738	.000568
.0000494	.024083	.000602
.0000476	.025591	.00064
.000046	.027052	.000676
.0000445	.028272	.000707
.0000431	.029749	.000744
.0000417	.031112	.000778
.0000405	.032294	.000807
.0000393	.033619	.00084
.0000382	.034719	.000868
.0000371	.036158	.000904
.0000361	.037105	.000928
.0000352	.038283	.000957
.0000343	.039167	.000979
.0000334	.040291	.001007
.0000326	.041483	.001037
.0000318	.042847	.001071
.000031	.043993	.0011
.0000303	.045211	.00113
.0000296	.046403	.00116
.0000289	.047673	.001192
.0000283	.048842	.001221
.0000277	.050091	.001252

System: 2-hydroxyethylammonium stearate + water; phases: Liquid
Fixed: Pressure, kPa = 101
Property: Mass density, kg/m3 (Liquid); method: Vibrating tube method
Temperature, K	Molality, mol/kg of 2-hydroxyethylammonium stearate	Mass density, kg/m3	uncertainty
298.15	.0000289	997.02	.1
298.15	.0000231	996.95	.1
298.15	.0000173	997.03	.1
298.15	.0000115	994.86	.1
298.15	.0000058	996	.1
298.15	0	996.06	.1
303.15	.0000289	995.6	.1
303.15	.0000231	995.35	.1
303.15	.0000173	995.65	.1
303.15	.0000115	995.63	.1
303.15	.0000058	994.49	.1
303.15	0	994.67	.1
308.15	.0000289	993.99	.1
308.15	.0000231	993.62	.1
308.15	.0000173	993.99	.1
308.15	.0000115	994.03	.1
308.15	.0000058	990.78	.1
308.15	0	993.01	.1

System: bis(2-hydroxyethyl)ammonium stearate + water; phases: Liquid
Fixed: Temperature, K = 293
Fixed: Pressure, kPa = 101
Property: Molar conductivity, S*m2/mol (Liquid); method: Direct current cell with electrodes
Molality, mol/kg of bis(2-hydroxyethyl)ammonium stearate	Molar conductivity, S*m2/mol	uncertainty
.00000798	.156852	.003921
.00000751	.175328	.004383
.00000708	.188884	.004722
.0000067	.202368	.005059
.00000634	.217827	.005446
.00000604	.242038	.006051
.00000574	.256214	.006405
.00000548	.277508	.006938
.00000524	.29566	.007392
.00000503	.3155	.007888
.00000483	.330295	.008257
.00000464	.348321	.008708
.00000447	.364822	.009121
.00000431	.379581	.00949
.00000414	.394896	.009872
.000004	.407958	.010199
.00000388	.423911	.010598
.00000376	.440546	.011014
.00000365	.456481	.011412
.00000354	.472819	.01182
.00000344	.490199	.012255
.00000334	.509644	.012741
.00000325	.527114	.013178
.00000317	.544746	.013619
.00000309	.563562	.014089
.00000301	.584345	.014609
.00000294	.601124	.015028
.00000287	.621305	.015533
.0000028	.639852	.015996
.00000273	.659719	.016493
.00000267	.677036	.016926

System: bis(2-hydroxyethyl)ammonium stearate + water; phases: Liquid
Fixed: Pressure, kPa = 101
Property: Mass density, kg/m3 (Liquid); method: Vibrating tube method
Temperature, K	Molality, mol/kg of bis(2-hydroxyethyl)ammonium stearate	Mass density, kg/m3	uncertainty
298.15	.0000282	996.33	.1
298.15	.0000226	996.99	.1
298.15	.0000169	995.02	.1
298.15	.0000113	996.77	.1
298.15	.0000057	997.02	.1
298.15	0	997.04	.1
303.15	.0000282	994.52	.1
303.15	.0000226	995.56	.1
303.15	.0000169	993.35	.1
303.15	.0000113	995.33	.1
303.15	.0000057	995.64	.1
303.15	0	995.65	.1
308.15	.0000282	992.74	.1
308.15	.0000226	994	.1
308.15	.0000169	991.33	.1
308.15	.0000113	993.54	.1
308.15	.0000057	993.99	.1
308.15	0	994	.1
