Measured thermophysical data. Isobaric vapor-liquid equilibrium for binary systemof 2-ethylthiophene + n-octane at 101.33 kPa
Source: Fluid Phase Equilib., 2014, 10.1016/j.fluid.2014.07.010
Compound 1: 2-ethylthiophene, C6H8S, purity 99%
Compound 2: n-octane, C8H18, purity 99%

System: n-octane + 2-ethylthiophene; phases: Liquid, Gas
Property: Boiling temperature at pressure P, K (Liquid); method: Ebulliometric method (Recirculating still)
Mole fraction of n-octane	Pressure, kPa	Boiling temperature at pressure P, K	uncertainty
1	101.33	398.57	.02
.955	101.33	398.59	.02
.9098	101.33	398.65	.02
.8582	101.33	398.96	.02
.7923	101.33	399.18	.02
.7577	101.33	399.35	.02
.7118	101.33	399.56	.02
.6147	101.33	400.15	.02
.5282	101.33	400.89	.02
.4536	101.33	401.39	.02
.3801	101.33	402.25	.02
.276	101.33	403.4	.02
.1858	101.33	404.37	.02
.1031	101.33	405.42	.02
.0367	101.33	406.44	.02
0	101.33	407.15	.02

System: n-octane + 2-ethylthiophene; phases: Gas, Liquid
Property: Mole fraction of n-octane (Gas); method: Chromatography
Mole fraction of n-octane	Pressure, kPa	Mole fraction of n-octane	uncertainty
1	101.33	1	.001
.955	101.33	.959	.001
.9098	101.33	.9132	.001
.8582	101.33	.8721	.001
.7923	101.33	.8089	.001
.7577	101.33	.7794	.001
.7118	101.33	.7472	.001
.6147	101.33	.6692	.001
.5282	101.33	.5738	.001
.4536	101.33	.5098	.001
.3801	101.33	.4465	.001
.276	101.33	.3305	.001
.1858	101.33	.2356	.001
.1031	101.33	.1385	.001
.0367	101.33	.058	.001
0	101.33	0	.001
