Measured thermophysical data. Liquid-liquid equilibria of mixtures with ethyl lactate and various hydrocarbons
Source: Fluid Phase Equilib., 2012, 10.1016/j.fluid.2012.02.004
Compound 1: hexane, C6H14, purity 97%
Compound 2: 1-hexene, C6H12, purity 99%
Compound 3: heptane, C7H16, purity 99%
Compound 4: 1-heptene, C7H14, purity 98%
Compound 5: octane, C8H18, purity 99%
Compound 6: 1-octene, C8H16, purity 98%
Compound 7: 2,2,4-trimethylpentane, C8H18, purity 99.8%
Compound 8: nonane, C9H20, purity 99%
Compound 9: decane, C10H22, purity 99%
Compound 10: dodecane, C12H26, purity 99%
Compound 11: 1-hexadecene, C16H32, purity 98%
Compound 12: benzene, C6H6, purity 98%
Compound 13: toluene, C7H8, purity 98%
Compound 14: cyclohexane, C6H12, purity 99%
Compound 15: (S)-(-)-ethyl lactate, C5H10O3, purity 98%

System: hexane + (S)-(-)-ethyl lactate; phases: Liquid, Crystal
Fixed: Pressure, kPa = 100
Property: Solid-liquid equilibrium temperature, K (Liquid); method: Visual observation
Mole fraction of (S)-(-)-ethyl lactate	Solid-liquid equilibrium temperature, K	uncertainty
.3889	274.9	.2
.4218	276.1	.2
.4331	276.5	.2
.4623	277	.2
.5001	277.2	.2
.5835	277.3	.2
.6489	277.2	.2
.7237	276.8	.2
.7393	276.6	.2
.7684	276	.2
.7969	275.1	.2

System: heptane + (S)-(-)-ethyl lactate; phases: Liquid, Crystal
Fixed: Pressure, kPa = 100
Property: Solid-liquid equilibrium temperature, K (Liquid); method: Visual observation
Mole fraction of (S)-(-)-ethyl lactate	Solid-liquid equilibrium temperature, K	uncertainty
.5357	285.2	.2
.4953	285.2	.2
.4483	284.9	.2
.3893	284	.2
.3365	282.5	.2
.2848	279.6	.2
.2249	273.7	.2
.5873	285.2	.2
.6306	285.1	.2
.6737	284.8	.2
.7249	283.9	.2
.7695	282.6	.2
.8321	279.1	.2
.8702	274	.2

System: octane + (S)-(-)-ethyl lactate; phases: Liquid, Crystal
Fixed: Pressure, kPa = 100
Property: Solid-liquid equilibrium temperature, K (Liquid); method: Visual observation
Mole fraction of (S)-(-)-ethyl lactate	Solid-liquid equilibrium temperature, K	uncertainty
.1935	279.7	.2
.2432	287.2	.2
.3013	291.1	.2
.333	292.1	.2
.4134	293.1	.2
.4487	293.5	.2
.4974	293.6	.2
.547	293.6	.2
.6016	293.5	.2
.6023	293.5	.2
.6592	293.3	.2
.7435	291.2	.2
.7815	289.4	.2
.8377	286	.2
.8655	280.9	.2

System: nonane + (S)-(-)-ethyl lactate; phases: Liquid, Crystal
Fixed: Pressure, kPa = 100
Property: Solid-liquid equilibrium temperature, K (Liquid); method: Visual observation
Mole fraction of (S)-(-)-ethyl lactate	Solid-liquid equilibrium temperature, K	uncertainty
.6257	298.9	.2
.5797	299.7	.2
.5258	299.8	.2
.4724	299.9	.2
.4257	299.9	.2
.3786	299.2	.2
.3298	298.5	.2
.2798	297.6	.2
.2329	294.7	.2
.1845	289.9	.2
.7716	293	.2
.6505	298.3	.2
.6796	297.2	.2
.7094	296.2	.2
.8057	290	.2

System: decane + (S)-(-)-ethyl lactate; phases: Liquid, Crystal
Fixed: Pressure, kPa = 100
Property: Solid-liquid equilibrium temperature, K (Liquid); method: Visual observation
Mole fraction of (S)-(-)-ethyl lactate	Solid-liquid equilibrium temperature, K	uncertainty
.208	299.9	.2
.26	303.2	.2
.3009	305.2	.2
.3572	306.2	.2
.3998	306.5	.2
.4525	306.7	.2
.5095	306.7	.2
.5548	306.4	.2
.5862	305.6	.2
.6585	303.2	.2
.7133	300.2	.2

System: dodecane + (S)-(-)-ethyl lactate; phases: Liquid, Crystal
Fixed: Pressure, kPa = 100
Property: Solid-liquid equilibrium temperature, K (Liquid); method: Visual observation
Mole fraction of (S)-(-)-ethyl lactate	Solid-liquid equilibrium temperature, K	uncertainty
.5061	320.1	.2
.4554	320.7	.2
.3992	320.9	.2
.3573	320.9	.2
.3149	320.7	.2
.2727	319.7	.2
.2272	318.4	.2
.1873	315.2	.2
.1315	309.4	.2
.6125	315.9	.2
.5515	318.2	.2
.8256	300.7	.2
.7661	306.7	.2
.7074	311.7	.2
.6793	313.2	.2
.1473	312.7	.2
.1045	305.1	.2

System: 2,2,4-trimethylpentane + (S)-(-)-ethyl lactate; phases: Liquid, Crystal
Fixed: Pressure, kPa = 100
Property: Solid-liquid equilibrium temperature, K (Liquid); method: Visual observation
Mole fraction of (S)-(-)-ethyl lactate	Solid-liquid equilibrium temperature, K	uncertainty
.2489	273.2	.2
.3074	278.9	.2
.3613	281.6	.2
.4153	282.5	.2
.47	283.1	.2
.5454	283.6	.2
.6029	283.5	.2
.6411	283.3	.2
.682	282.9	.2
.7111	282.2	.2
.7503	280.8	.2
.7914	278.6	.2
.8216	276.2	.2

System: 1-hexadecene + (S)-(-)-ethyl lactate; phases: Liquid, Crystal
Fixed: Pressure, kPa = 101
Property: Solid-liquid equilibrium temperature, K (Liquid); method: Visual observation
Mole fraction of (S)-(-)-ethyl lactate	Solid-liquid equilibrium temperature, K	uncertainty
.0408	291.7	.2
.0611	303.1	.2
.0971	310.9	.2
.1171	312.8	.2
.1307	314.2	.2
.1628	315.4	.2
.1951	317	.2
.2682	317.3	.2
.292	317.2	.2
.3338	316.8	.2
.407	315.4	.2
.4901	313.1	.2
.5372	310	.2
.6271	304.9	.2
.722	295	.2
