Measured thermophysical data. Internal pressure measurements of the binary 0.7393H2O+ 0.2607NH3 mixture  near the critical and maxcondetherm points
Source: Fluid Phase Equilib., 2010, 10.1016/j.fluid.2010.01.023
Compound 1: water, H2O, purity 99.9%
Compound 2: ammonia, H3N, purity 99.8%

System: ammonia + water; phases: Fluid (supercritical or subcritical phases)
Fixed: Mole fraction of water = .7393
Property: Thermal pressure coefficient, kPa/K (Fluid (supercritical or subcritical phases)); method: quasistatic thermogram and barogram
Mass density, kg/m3	Temperature, K	Thermal pressure coefficient, kPa/K	uncertainty
671.23	402.59	30	0
671.23	478.28	86	0
671.23	485.04	86	0
671.23	492.71	87	0
671.23	498.62	97	0
671.23	507.04	118	0
671.23	508.07	118	0
671.23	508.07	941	0
671.23	508.36	941	0
671.23	509.3	935	0
671.23	513.52	976	0
649.65	407.37	37	0
649.65	407.57	37	0
649.65	407.79	40	0
649.65	509.3	106	0
649.65	514.53	119	0
649.65	519.21	137	0
649.65	519.77	134	0
649.65	519.77	896	0
649.65	519.86	896	0
649.65	520.05	897	0
649.65	520.42	899	0
649.65	521.54	899	0
649.65	527.01	915	0
594.32	530.67	131	0
594.32	534.1	139	0
594.32	539.15	145	0
594.32	541.46	152	0
594.32	542.16	153	0
594.32	544.61	158	0
594.32	545.26	161	0
594.32	545.61	163	0
594.32	545.61	743	0
594.32	546.16	744	0
594.32	546.26	736	0
594.32	549.77	742	0
552.58	530.51	130	0
552.58	539.88	138	0
552.58	550.79	152	0
552.58	551.43	154	0
552.58	554.5	156	0
552.58	555.04	159	0
552.58	558.82	167	0
552.58	560.44	171	0
552.58	561.03	180	120
552.58	561.03	650	120
552.58	562	654	120
540.25	330.88	7	120
540.25	349.52	12	120
540.25	366.71	17	120
540.25	397.73	32	120
540.25	421.43	43	120
540.25	446.89	58	120
540.25	473.33	77	120
540.25	494.07	97	120
540.25	516.77	116	120
540.25	517.23	119	120
540.25	536.84	135	120
540.25	537.29	135	120
540.25	556.55	159	120
540.25	562.66	177	120
540.25	563.98	181	120
540.25	564.69	185	120
540.25	565.22	186	120
540.25	565.31	187	120
540.25	565.36	186	120
540.25	565.36	602	120
540.25	566.19	611	120
540.25	566.98	606	120
540.25	572.95	618	120
540.25	578.75	632	120
540.25	582.99	639	120
476.25	530.98	129	120
476.25	540.06	137	120
476.25	540.79	137	120
476.25	548.44	146	120
476.25	559.36	160	120
476.25	570.03	179	120
476.25	570.81	182	120
476.25	571.35	183	120
476.25	574.99	191	120
476.25	575.79	191	120
476.25	579.5	198	120
476.25	580.18	203	120
476.25	580.18	452	120
476.25	580.65	456	120
476.25	581.27	457	120
476.25	584.88	473	120
456.58	527.03	125	120
456.58	541.53	139	120
456.58	552.99	160	120
456.58	553.25	154	120
456.58	556.9	158	120
456.58	568.48	174	120
456.58	571.99	187	120
456.58	578.55	197	120
456.58	579.85	204	120
456.58	581.77	198	120
456.58	583.68	203	120
456.58	584.72	202	120
456.58	584.95	206	120
456.58	584.95	410	120
456.58	587.24	416	120
456.58	595.35	451	120
456.58	599.57	456	120
456.58	602.65	458	120
376.89	553.7	161	120
376.89	571.02	175	120
376.89	590.18	201	120
376.89	591.32	202	120
376.89	591.73	202	120
376.89	594.06	206	120
376.89	595.16	205	120
376.89	595.16	295	120
376.89	595.78	296	120
376.89	597.33	306	120
376.89	598.28	311	120
376.89	598.97	311	120
376.89	601.71	327	120
376.89	602.39	320	120
376.89	606.58	333	120
376.89	607.95	332	120
376.89	612.63	342	120
342.18	563.63	162	120
342.18	581.59	192	120
342.18	590.18	198	120
342.18	595.53	199	120
342.18	597.08	198	120
342.18	597.56	197	120
342.18	597.56	261	120
342.18	601.02	281	120
342.18	602.74	286	120
342.18	607.78	290	120
342.18	611.55	299	120
342.18	618.4	304	120
329	580.9	185	1500
329	591.13	194	1500
329	598.33	195	1500
329	598.33	249	1500
329	599.05	258	1500
329	605.39	275	1500
329	616.37	285	1500
320.33	581.68	186	1500
320.33	591.47	199	1500
320.33	598.45	197	1500
320.33	598.96	192	1500
320.33	598.96	246	1500
320.33	599.44	250	1500
320.33	601.11	257	1500
320.33	609.42	279	1500
312.91	582.55	189	1500
312.91	592.08	191	1500
312.91	599.42	192	1500
312.91	599.42	244	1500
312.91	602.22	261	1500
312.91	610.25	270	1500
312.91	616.12	269	1500
311.19	593.54	197	1500
311.19	597.33	199	1500
311.19	599.57	193	1500
311.19	599.57	240	1500
311.19	603.08	256	1500
311.19	610.59	265	1500
311.19	616.03	277	1500
309.95	590.7	203	1500
309.95	595.78	200	1500
309.95	599.67	192	1500
309.95	599.67	236	1500
309.95	600.59	248	1500
309.95	608.04	261	1500
309.95	616.28	261	1500
308.35	582.45	190	1500
308.35	591.04	200	1500
308.35	596.47	205	1500
308.35	599.78	192	1500
308.35	599.78	234	1500
308.35	600.77	240	1500
308.35	609.71	272	1500
307.35	582.46	190	1500
307.35	592.68	194	1500
307.35	596.73	201	1500
307.35	599.89	192	1500
307.35	599.89	231	1500
307.35	602.31	241	1500
307.35	610.85	266	1500
305.44	589.66	194	1500
305.44	600.02	192	1500
305.44	600.02	229	1500
305.44	600.94	237	1500
303.47	590.09	191	1500
303.47	600.17	192	1500
303.47	600.17	229	1500
301.94	591.13	196	1500
301.94	598.57	199	1500
301.94	600.29	192	1500
301.94	600.29	228	1500
301.94	601.28	234	1500
301.94	611.61	259	1500
299.79	591.47	190	1500
299.79	599.05	192	1500
299.79	600.48	193	1500
299.79	600.48	226	1500
299.79	601.45	239	1500
299.79	611.44	257	1500
299.79	617.05	260	1500
297.6	590.01	191	1500
297.6	598.54	191	1500
297.6	598.71	192	1500
297.6	600.63	193	1500
297.6	600.63	225	1500
297.6	601.45	225	1500
297.6	620.1	260	1500
295.31	597.42	196	1500
295.31	599.91	196	1500
295.31	600.81	193	1500
295.31	600.81	224	1500
295.31	601.54	238	1500
295.31	609.99	250	1500
292.97	597.76	199	1500
292.97	600.93	194	1500
292.97	600.93	224	1500
291.16	598.63	201	1500
291.16	601.02	192	1500
291.16	601.05	193	1500
291.16	601.05	223	1500
285.71	595.61	196	1500
285.71	601.34	196	1500
285.71	601.34	222	1500
271.09	596.9	199	1500
271.09	602.05	197	1500
271.09	602.05	217	1500
260.02	600.94	193	1500
260.02	602.45	199	1500
260.02	602.45	215	1500
243.97	598.96	201	1500
243.97	602.91	202	1500
243.97	602.91	208	1500
243.97	604.36	210	1500
230.31	600.68	200	1500
230.31	601.71	202	1500
230.31	602.96	202	1500
230.31	602.96	204	1500
230.31	604.11	205	1500
230.31	611.61	209	1500
227.54	596.04	195	1500
227.54	601.19	200	1500
227.54	602.97	202	1500
227.54	602.97	203	1500
227.54	603.85	203	1500
224.53	598.19	198	1500
224.53	601.37	201	1500
224.53	602.96	202	1500
224.53	602.96	200	1500
224.53	604.11	200	1500
218.92	597.59	197	1500
218.92	602.05	201	1500
218.92	602.85	202	1500
218.92	602.85	198	1500
218.92	603.76	196	1500
214.43	599.22	201	1500
214.43	601.28	203	1500
214.43	602.74	202	1500
214.43	602.74	195	1500
214.43	603.85	191	1500
206.01	599.52	198	1500
206.01	601.37	199	1500
206.01	602.26	199	1500
206.01	602.26	188	1500
206.01	603.34	182	1500
195.99	600.17	195	1500
195.99	601.75	195	1500
195.99	601.75	181	1500
195.99	606.76	172	1500
195.99	609.48	168	1500
188.05	592.94	184	1500
188.05	597.5	187	1500
188.05	601.16	186	1500
188.05	601.16	168	1500
160.07	583.77	168	1500
160.07	591.47	177	1500
160.07	596.04	183	1500
160.07	597.33	151	1500
160.07	597.35	174	1500
160.07	597.35	147	1500
160.07	598.36	140	1500
160.07	599.05	139	1500
160.07	599.14	137	1500
160.07	608.55	131	1500
160.07	615.35	131	1500
160.07	624.91	132	1500
160.07	633.33	134	1500
147.43	576.8	154	1500
147.43	585.68	166	1500
147.43	592.42	176	1500
147.43	593.2	175	1500
147.43	593.89	148	1500
147.43	594.14	168	1500
147.43	594.14	141	1500
147.43	594.84	126	1500
147.43	595.35	124	1500
147.43	605.47	120	1500
120.03	575.93	148	1500
120.03	582.01	155	1500
120.03	584.81	155	1500
120.03	585.31	154	1500
120.03	585.31	128	1500
120.03	586.08	100	1500
120.03	586.37	96	1500
120.03	594.84	91	1500

System: ammonia + water; phases: Liquid, Gas
Property: Vapor or sublimation pressure, kPa (Liquid); method: thermo-barogram
Temperature, K	Mass density, kg/m3	Vapor or sublimation pressure, kPa	uncertainty
508.07	671.23	8960	4.48
519.77	649.65	10210	5.105
545.62	594.32	13680	6.84
561.03	552.58	16130	8.065
565.36	540.25	16760	8.38
580.18	476.25	19000	9.5
584.95	456.58	19820	9.91
595.16	376.89	21170	10.585
597.56	342.19	21350	10.675
598.33	329	21380	10.69
598.96	320.33	21400	10.7
599.42	312.91	21410	10.705
599.57	311.19	21410	10.705
599.67	310.95	21410	10.705
599.78	308.35	21400	10.7
599.89	307.35	21409	10.7045
600.02	305.44	21409	10.7045
600.17	303.47	21409	10.7045
600.29	301.94	21408	10.704
600.48	299.79	21408	10.704
600.63	297.6	21405	10.7025
600.81	295.31	21404	10.702
600.93	292.97	21402	10.701
601.05	291.16	21398	10.699
601.34	285.71	21391	10.6955
602.05	271.09	21344	10.672
602.45	260.02	21136	10.568
602.91	243.98	20844	10.422
602.96	230.31	20710	10.355
602.97	227.54	20624	10.312
602.96	224.53	20541	10.2705
602.85	218.92	20397	10.1985
602.74	214.83	20313	10.1565
602.26	206.01	20040	10.02
601.75	195.99	19746	9.873
601.16	188.05	19496	9.748
597.36	160.07	18138	9.069
594.14	147.43	17246	8.623
585.31	120.03	15041	7.5205
