Measured thermophysical data. Isobaric vapor-liquid equilibria for the binary and ternary mixtures of 2-propanol, water, and 1,3-propanediol at p = 101.3 kPa: Effect of the 1,3-propanediol addition
Source: Fluid Phase Equilib., 2014, 10.1016/j.fluid.2014.02.006
Compound 1: 2-propanol, C3H8O, purity 99.9%
Compound 2: water, H2O, purity 99.9%
Compound 3: 1,3-propanediol, C3H8O2, purity 99.9%

System: 2-propanol; phases: Liquid
Fixed: Pressure, kPa = 101.325
Property: Mass density, kg/m3 (Liquid); method: Vibrating tube method
Temperature, K	Mass density, kg/m3	uncertainty
298.15	781.18	.01

System: 2-propanol; phases: Liquid
Fixed: Pressure, kPa = 101.325
Property: Refractive index (Na D-line) (Liquid); method: Standard Abbe refractometry
Temperature, K	Refractive index (Na D-line)	uncertainty
298.15	1.3752	.00002

System: water; phases: Liquid
Fixed: Pressure, kPa = 101.325
Property: Mass density, kg/m3 (Liquid); method: Vibrating tube method
Temperature, K	Mass density, kg/m3	uncertainty
298.15	997.05	.01

System: water; phases: Liquid
Fixed: Pressure, kPa = 101.325
Property: Refractive index (Na D-line) (Liquid); method: Standard Abbe refractometry
Temperature, K	Refractive index (Na D-line)	uncertainty
298.15	1.33237	.00002

System: 1,3-propanediol; phases: Liquid
Fixed: Pressure, kPa = 101.325
Property: Mass density, kg/m3 (Liquid); method: Vibrating tube method
Temperature, K	Mass density, kg/m3	uncertainty
298.15	1049.68	.01

System: 1,3-propanediol; phases: Liquid
Fixed: Pressure, kPa = 101.325
Property: Refractive index (Na D-line) (Liquid); method: Standard Abbe refractometry
Temperature, K	Refractive index (Na D-line)	uncertainty
298.15	1.43851	.00002

System: 2-propanol + 1,3-propanediol; phases: Liquid, Gas
Property: Boiling temperature at pressure P, K (Liquid); method: Ebulliometric method (Recirculating still)
Mole fraction of 2-propanol	Pressure, kPa	Boiling temperature at pressure P, K	uncertainty
0	101.3	487.55	.05
.027	101.3	445.58	.05
.054	101.3	425.51	.05
.118	101.3	402.32	.05
.192	101.3	391.08	.05
.231	101.3	387.35	.05
.268	101.3	384.16	.05
.328	101.3	380.35	.05
.388	101.3	377.21	.05
.458	101.3	373.88	.05
.501	101.3	371.84	.05
.567	101.3	369.17	.05
.635	101.3	366.66	.05
.692	101.3	364.51	.05
.755	101.3	362.3	.05
.811	101.3	360.52	.05
.878	101.3	358.55	.05
.935	101.3	357.01	.05
.968	101.3	356.17	.05
1	101.3	355.46	.05

System: 2-propanol + 1,3-propanediol; phases: Gas, Liquid
Property: Mole fraction of 2-propanol (Gas); method: Chromatography
Mole fraction of 2-propanol	Pressure, kPa	Mole fraction of 2-propanol	uncertainty
0	101.3	0	.002
.027	101.3	.758	.002
.054	101.3	.892	.002
.118	101.3	.963	.002
.192	101.3	.98	.002
.231	101.3	.984	.002
.268	101.3	.987	.002
.328	101.3	.99	.002
.388	101.3	.992	.002
.458	101.3	.994	.002
.501	101.3	.995	.002
.567	101.3	1	.002
.635	101.3	1	.002
.692	101.3	1	.002
.755	101.3	1	.002
.811	101.3	1	.002
.878	101.3	1	.002
.935	101.3	1	.002
.968	101.3	1	.002
1	101.3	1	.002

System: 2-propanol + 1,3-propanediol + water; phases: Liquid, Gas
Fixed: Pressure, kPa = 101.3
Property: Boiling temperature at pressure P, K (Liquid); method: Ebulliometric method (Recirculating still)
Mole fraction of 2-propanol	Mole fraction of water	Boiling temperature at pressure P, K	uncertainty
.846	.081	357.01	.05
.817	.109	356.58	.05
.745	.189	355.84	.05
.693	.242	355.69	.05
.656	.281	355.57	.05
.573	.364	355.47	.05
.472	.477	355.39	.05
.368	.586	355.54	.05
.279	.681	355.84	.05
.18	.78	357	.05
.092	.878	358.45	.05
.05	.921	362.08	.05
.711	.056	362.22	.05
.678	.085	362.04	.05
.65	.114	361.37	.05
.617	.158	360.53	.05
.547	.237	359.94	.05
.478	.318	359.43	.05
.404	.414	359.04	.05
.329	.514	359.23	.05
.244	.612	359.69	.05
.15	.725	361.14	.05
.08	.815	362.97	.05
.042	.861	366.61	.05
.519	.058	369.79	.05
.492	.091	369.41	.05
.467	.124	368.5	.05
.431	.181	367.18	.05
.377	.256	366.13	.05
.333	.319	365.85	.05
.269	.417	365.64	.05
.203	.51	365.41	.05
.132	.612	366.31	.05
.068	.707	368.81	.05
.048	.738	370.53	.05

System: 2-propanol + 1,3-propanediol + water; phases: Gas, Liquid
Fixed: Pressure, kPa = 101.3
Property: Mole fraction of 2-propanol (Gas); method: Chromatography
Mole fraction of 2-propanol	Mole fraction of water	Mole fraction of 2-propanol	uncertainty
.846	.081	.899	.002
.817	.109	.87	.002
.745	.189	.787	.002
.693	.242	.744	.002
.656	.281	.715	.002
.573	.364	.669	.002
.472	.477	.616	.002
.368	.586	.565	.002
.279	.681	.538	.002
.18	.78	.509	.002
.092	.878	.459	.002
.05	.921	.365	.002
.711	.056	.925	.002
.678	.085	.896	.002
.65	.114	.866	.002
.617	.158	.82	.002
.547	.237	.751	.002
.478	.318	.688	.002
.404	.414	.633	.002
.329	.514	.585	.002
.244	.612	.548	.002
.15	.725	.486	.002
.08	.815	.41	.002
.042	.861	.294	.002
.519	.058	.92	.002
.492	.091	.882	.002
.467	.124	.849	.002
.431	.181	.797	.002
.377	.256	.731	.002
.333	.319	.675	.002
.269	.417	.615	.002
.203	.51	.549	.002
.132	.612	.476	.002
.068	.707	.355	.002
.048	.738	.289	.002

System: 2-propanol + water; phases: Liquid, Gas
Property: Boiling temperature at pressure P, K (Liquid); method: Ebulliometric method (Recirculating still)
Mole fraction of 2-propanol	Pressure, kPa	Boiling temperature at pressure P, K	uncertainty
0	101.3	373.15	.05
.004	101.3	371.38	.05
.017	101.3	366.49	.05
.031	101.3	362.98	.05
.05	101.3	359.86	.05
.113	101.3	356.54	.05
.263	101.3	354.86	.05
.398	101.3	354.03	.05
.464	101.3	353.72	.05
.591	101.3	353.3	.05
.649	101.3	353.25	.05
.69	101.3	353.22	.05
.741	101.3	353.23	.05
.826	101.3	353.58	.05
.876	101.3	353.87	.05
.929	101.3	354.36	.05
1	101.3	355.46	.05

System: 2-propanol + water; phases: Gas, Liquid
Property: Mole fraction of 2-propanol (Gas); method: Chromatography
Mole fraction of 2-propanol	Pressure, kPa	Mole fraction of 2-propanol	uncertainty
0	101.3	0	.002
.004	101.3	.065	.002
.017	101.3	.222	.002
.031	101.3	.315	.002
.05	101.3	.401	.002
.113	101.3	.497	.002
.263	101.3	.545	.002
.398	101.3	.566	.002
.464	101.3	.585	.002
.591	101.3	.638	.002
.649	101.3	.666	.002
.69	101.3	.689	.002
.741	101.3	.725	.002
.826	101.3	.788	.002
.876	101.3	.833	.002
.929	101.3	.896	.002
1	101.3	1	.002

System: 2-propanol + water; phases: Liquid, Gas
Property: Azeotropic temperature, K (Liquid); method: By X=Y
Pressure, kPa	Azeotropic temperature, K	uncertainty
101.3	353.21	.05

System: 2-propanol + water; phases: Liquid, Gas
Property: Azeotropic composition: mole fraction of 2-propanol (Liquid); method: By X=Y
Pressure, kPa	Azeotropic composition: mole fraction of 2-propanol	uncertainty
101.3	.688	.001
