Measured thermophysical data. Vapor pressures and flash points for binary mixtures of tricyclo [5.2.1.0] decane and dimethyl carbonate
Source: Fluid Phase Equilib., 2009, 10.1016/j.fluid.2009.06.002
Compound 1: JP-10, C10H16, purity 97.08%
Compound 2: dimethyl carbonate, C3H6O3, purity 99.8%

System: JP-10; phases: Liquid, Gas
Property: Normal boiling temperature, K (Liquid); method: comparitive ebulliometry with ethanol
Normal boiling temperature, K	uncertainty
458.09	

System: JP-10; phases: Liquid
Fixed: Pressure, kPa = 101.325
Property: Mass density, kg/m3 (Liquid); method: Other
Temperature, K	Mass density, kg/m3	uncertainty
298.15	931.4	

System: JP-10; phases: Crystal, Liquid, Air at 1 atmosphere
Property: Normal melting temperature, K (Crystal); method: Other
Normal melting temperature, K	uncertainty
380.7	

System: JP-10; phases: Liquid, Air at 1 atmosphere
Property: Viscosity, Pa*s (Liquid); method: Other
Temperature, K	Viscosity, Pa*s	uncertainty
298.15	.002739	

System: dimethyl carbonate + JP-10; phases: Gas, Liquid
Property: Mole fraction of dimethyl carbonate (Gas); method: Other
Mole fraction of dimethyl carbonate	Temperature, K	Mole fraction of dimethyl carbonate	uncertainty
0	358.15	0	
.0891	358.15	.9055	
.1165	358.15	.9221	
.1445	358.15	.9328	
.2752	358.15	.9547	
.3934	358.15	.9624	
.5019	358.15	.9667	
.6884	358.15	.9727	
.7791	358.15	.9762	
.8583	358.15	.9807	
.9315	358.15	.9877	
1	358.15	1	
0	363.15	0	
.0891	363.15	.8968	
.1165	363.15	.9148	
.1445	363.15	.9264	
.2752	363.15	.9504	
.3934	363.15	.9589	
.5019	363.15	.9636	
.6884	363.15	.9702	
.7791	363.15	.9742	
.8583	363.15	.9792	
.9315	363.15	.9868	
1	363.15	1	
0	368.15	0	
.0891	368.15	.8876	
.1165	368.15	.907	
.1445	368.15	.9197	
.2752	368.15	.9458	
.3934	368.15	.9551	
.5019	368.15	.9603	
.6884	368.15	.9677	
.7791	368.15	.9721	
.8583	368.15	.9777	
.9315	368.15	.986	
1	368.15	1	
0	373.15	0	
.0891	373.15	.8783	
.1165	373.15	.8991	
.1445	373.15	.9128	
.2752	373.15	.9411	
.3934	373.15	.9512	
.5019	373.15	.957	
.6884	373.15	.9653	
.7791	373.15	.9703	
.8583	373.15	.9764	
.9315	373.15	.9854	
1	373.15	1	

System: dimethyl carbonate + JP-10; phases: Liquid, Gas
Property: Mole fraction of dimethyl carbonate (Liquid); method: Other
Temperature, K	Pressure, kPa	Mole fraction of dimethyl carbonate	uncertainty
358.15	3.18	0	
358.15	30.01	.0891	
358.15	36.79	.1165	
358.15	43.51	.1445	
358.15	59.83	.2752	
358.15	63.62	.3934	
358.15	68.04	.5019	
358.15	73.74	.6884	
358.15	76.07	.7791	
358.15	78.78	.8583	
358.15	81.99	.9315	
358.15	86.35	1	
363.15	4.09	0	
363.15	35.46	.0891	
363.15	43.25	.1165	
363.15	50.96	.1445	
363.15	70.29	.2752	
363.15	74.1	.3934	
363.15	79.86	.5019	
363.15	86.74	.6884	
363.15	89.49	.7791	
363.15	92.76	.8583	
363.15	96.57	.9315	
363.15	101.6	1	
368.15	5.2	0	
368.15	41.55	.0891	
368.15	50.42	.1165	
368.15	59.2	.1445	
368.15	82.17	.2752	
368.15	85.8	.3934	
368.15	93.25	.5019	
368.15	101.47	.6884	
368.15	104.68	.7791	
368.15	108.58	.8583	
368.15	113.08	.9315	
368.15	118.81	1	
373.15	6.53	0	
373.15	48.32	.0891	
373.15	58.36	.1165	
373.15	68.26	.1445	
373.15	95.61	.2752	
373.15	98.77	.3934	
373.15	108.34	.5019	
373.15	118.06	.6884	
373.15	121.77	.7791	
373.15	126.4	.8583	
373.15	131.7	.9315	
373.15	138.15	1	
