Measured thermophysical data. Thermophysical properties of pure 1-ethyl-3-methylimidazolium methylsulfate and its binary mixtures with alcohols
Source: Fluid Phase Equilib., 2011, 10.1016/j.fluid.2011.03.008
Compound 1: 1-ethyl-3-methylimidazolium methylsulfate, C7H14N2O4S, purity 99%
Compound 2: methanol, CH4O, purity 99.5%
Compound 3: ethanol, C2H6O, purity 99.5%
Compound 4: 1-butanol, C4H10O, purity 99.9%

System: 1-ethyl-3-methylimidazolium methylsulfate; phases: Liquid
Fixed: Pressure, kPa = 101.325
Property: Mass density, kg/m3 (Liquid); method: Vibrating tube method
Temperature, K	Mass density, kg/m3	uncertainty
283.15	1273.4	.5
288.15	1270.1	.5
293.15	1267	.5
298.15	1262.9	.5
303.15	1259.4	.5
308.15	1255.8	.5
313.15	1252.9	.5
318.15	1249.9	.5
323.15	1246.9	.5
328.15	1243.5	.5
333.15	1240.3	.5

System: 1-ethyl-3-methylimidazolium methylsulfate; phases: Liquid, Air at 1 atmosphere
Property: Surface tension liquid-gas, N/m (Liquid); method: Plate tensiometer
Temperature, K	Surface tension liquid-gas, N/m	uncertainty
283.15	.05354	.00015
288.15	.05328	.00015
293.15	.05299	.00015
298.15	.05262	.00015
303.15	.05232	.00015
308.15	.05203	.00015
313.15	.05172	.00015
318.15	.05144	.00015
323.15	.05107	.00015
328.15	.05068	.00015
333.15	.05041	.00015

System: methanol + 1-ethyl-3-methylimidazolium methylsulfate; phases: Liquid
Fixed: Temperature, K = 293.15
Fixed: Pressure, kPa = 101
Property: Mass density, kg/m3 (Liquid); method: Vibrating tube method
Mole fraction of 1-ethyl-3-methylimidazolium methylsulfate	Mass density, kg/m3	uncertainty
0	791.2	.5
.05	883.8	.5
.08	928.9	.5
.0995	957.2	.5
.2001	1061.5	.5
.3024	1122.2	.5
.4012	1161.3	.5
.4971	1189.3	.5
.6	1212.1	.5
.7004	1228	.5
.8003	1242.3	.5
.8971	1252.6	.5
.9389	1256.7	.5
1	1262.9	.5

System: methanol + 1-ethyl-3-methylimidazolium methylsulfate; phases: Liquid
Fixed: Temperature, K = 293.15
Fixed: Pressure, kPa = 101
Property: Excess molar volume, m3/mol (Liquid); method: Calculated with densities of this investigation
Mole fraction of 1-ethyl-3-methylimidazolium methylsulfate	Excess molar volume, m3/mol	uncertainty
0	0	0
.05	-.0000002562	-.000000001281
.08	-.0000006783	-.0000000033915
.0995	-.0000009448	-.000000004724
.2001	-.0000017562	-.000000008781
.3024	-.0000018249	-.0000000091245
.4012	-.0000016923	-.0000000084615
.4971	-.000001522	-.00000000761
.6	-.000001294	-.00000000647
.7004	-.0000008833	-.0000000044165
.8003	-.0000006482	-.000000003241
.8971	-.000000261	-.000000001305
.9389	-.0000001158	-.000000000579
1	0	0

System: methanol + 1-ethyl-3-methylimidazolium methylsulfate; phases: Liquid, Air at 1 atmosphere
Fixed: Temperature, K = 293.15
Property: Surface tension liquid-gas, N/m (Liquid); method: Plate tensiometer
Mole fraction of 1-ethyl-3-methylimidazolium methylsulfate	Surface tension liquid-gas, N/m	uncertainty
0	.0218	.00015
.05	.02419	.00015
.08	.02556	.00015
.0995	.02619	.00015
.2001	.03012	.00015
.3024	.03316	.00015
.4012	.03721	.00015
.4971	.04002	.00015
.6	.04302	.00015
.7004	.04559	.00015
.8003	.04806	.00015
.8971	.05063	.00015
.9389	.05159	.00015
1	.05262	.00015

System: ethanol + 1-ethyl-3-methylimidazolium methylsulfate; phases: Liquid
Fixed: Temperature, K = 293.15
Fixed: Pressure, kPa = 101
Property: Mass density, kg/m3 (Liquid); method: Vibrating tube method
Mole fraction of 1-ethyl-3-methylimidazolium methylsulfate	Mass density, kg/m3	uncertainty
0	785.7	.5
.04	839.3	.5
.0597	862.9	.5
.08	885.6	.5
.0999	906.5	.5
.2	995.1	.5
.3	1064.8	.5
.4	1113.2	.5
.5	1150.2	.5
.5998	1179.8	.5
.6993	1205.1	.5
.8005	1227.1	.5
.9009	1246.4	.5
1	1262.9	.5

System: ethanol + 1-ethyl-3-methylimidazolium methylsulfate; phases: Liquid
Fixed: Temperature, K = 293.15
Fixed: Pressure, kPa = 101
Property: Excess molar volume, m3/mol (Liquid); method: Calculated with densities of this investigation
Mole fraction of 1-ethyl-3-methylimidazolium methylsulfate	Excess molar volume, m3/mol	uncertainty
0	0	0
.04	-.00000004188	-.0000000002094
.0597	-.00000006228	-.0000000003114
.08	-.00000008688	-.0000000004344
.0999	-.00000012079	-.00000000060395
.2	-.00000039847	-.00000000199235
.3	-.0000009358	-.000000004679
.4	-.0000008835	-.0000000044175
.5	-.0000006688	-.000000003344
.5998	-.0000004034	-.000000002017
.6993	-.0000002334	-.000000001167
.8005	-.0000000977	-.0000000004885
.9009	-.000000049	-.000000000245
1	0	0

System: ethanol + 1-ethyl-3-methylimidazolium methylsulfate; phases: Liquid, Air at 1 atmosphere
Fixed: Temperature, K = 293.15
Property: Surface tension liquid-gas, N/m (Liquid); method: Plate tensiometer
Mole fraction of 1-ethyl-3-methylimidazolium methylsulfate	Surface tension liquid-gas, N/m	uncertainty
0	.022	.00015
.04	.02275	.00015
.0597	.02323	.00015
.08	.02362	.00015
.0999	.02408	.00015
.2	.02608	.00015
.3	.02859	.00015
.4	.03009	.00015
.5	.03219	.00015
.5998	.03422	.00015
.6993	.03892	.00015
.8005	.04418	.00015
.9009	.04923	.00015
1	.05262	.00015

System: 1-butanol + 1-ethyl-3-methylimidazolium methylsulfate; phases: Liquid
Fixed: Temperature, K = 293.15
Fixed: Pressure, kPa = 101
Property: Mass density, kg/m3 (Liquid); method: Vibrating tube method
Mole fraction of 1-ethyl-3-methylimidazolium methylsulfate	Mass density, kg/m3	uncertainty
0	809.6	.5
.032	837.1	.5
.071	868.3	.5
.1	890.3	.5
.2306	978.5	.5
.3	1017.9	.5
.3996	1066.8	.5
.4989	1109.3	.5
.5993	1147.1	.5
.695	1179.6	.5
.7864	1207.2	.5
.9206	1243.6	.5
1	1262.9	.5

System: 1-butanol + 1-ethyl-3-methylimidazolium methylsulfate; phases: Liquid
Fixed: Temperature, K = 293.15
Fixed: Pressure, kPa = 101
Property: Excess molar volume, m3/mol (Liquid); method: Calculated with densities of this investigation
Mole fraction of 1-ethyl-3-methylimidazolium methylsulfate	Excess molar volume, m3/mol	uncertainty
0	0	0
.032	-.0000000475	-.0000000002375
.071	-.0000000727	-.0000000003635
.1	-.0000001053	-.0000000005265
.2306	-.0000003663	-.0000000018315
.3	-.00000041	-.00000000205
.3996	-.0000003285	-.0000000016425
.4989	-.0000002402	-.000000001201
.5993	-.0000001612	-.000000000806
.695	-.0000001234	-.000000000617
.7864	-.0000000567	-.0000000002835
.9206	-.0000000231	-.0000000001155
1	0	0

System: 1-butanol + 1-ethyl-3-methylimidazolium methylsulfate; phases: Liquid, Air at 1 atmosphere
Fixed: Temperature, K = 293.15
Property: Surface tension liquid-gas, N/m (Liquid); method: Ring tensiometer
Mole fraction of 1-ethyl-3-methylimidazolium methylsulfate	Surface tension liquid-gas, N/m	uncertainty
0	.02362	.00015
.032	.02396	.00015
.071	.0243	.00015
.1	.02439	.00015
.2306	.02551	.00015
.3	.02611	.00015
.3996	.02713	.00015
.4989	.02816	.00015
.5993	.02858	.00015
.695	.02861	.00015
.7864	.03318	.00015
.9206	.03912	.00015
.9628	.04321	.00015
1	.05262	.00015
