Measured thermophysical data. Liquid-liquid equilibrium data for systems containing of formic acid, water, and primary normal alcohols at T = 298.2 K
Source: Fluid Phase Equilib., 2013, 10.1016/j.fluid.2013.06.006
Compound 1: methanoic acid, CH2O2, purity 99%
Compound 2: amylcarbinol, C6H14O, purity 99%
Compound 3: 1-hydroxyheptane, C7H16O, purity 99%
Compound 4: pentyl alcohol, C5H12O, purity 99%
Compound 5: n-butanol, C4H10O, purity 99%
Compound 6: water, H2O, purity 99.8%

System: methanoic acid; phases: Liquid
Fixed: Pressure, kPa = 101.325
Property: Refractive index (Na D-line) (Liquid); method: Standard Abbe refractometry
Temperature, K	Refractive index (Na D-line)	uncertainty
293.2	1.3711	.0002

System: methanoic acid; phases: Liquid
Fixed: Pressure, kPa = 101.325
Property: Mass density, kg/m3 (Liquid); method: Vibrating tube method
Temperature, K	Mass density, kg/m3	uncertainty
293.2	1219.5	.01

System: amylcarbinol; phases: Liquid
Fixed: Pressure, kPa = 101.325
Property: Refractive index (Na D-line) (Liquid); method: Standard Abbe refractometry
Temperature, K	Refractive index (Na D-line)	uncertainty
293.2	1.4181	.0002

System: amylcarbinol; phases: Liquid
Fixed: Pressure, kPa = 101.325
Property: Mass density, kg/m3 (Liquid); method: Vibrating tube method
Temperature, K	Mass density, kg/m3	uncertainty
293.2	818.21	.01

System: 1-hydroxyheptane; phases: Liquid
Fixed: Pressure, kPa = 101.325
Property: Refractive index (Na D-line) (Liquid); method: Standard Abbe refractometry
Temperature, K	Refractive index (Na D-line)	uncertainty
293.2	1.4244	.0002

System: 1-hydroxyheptane; phases: Liquid
Fixed: Pressure, kPa = 101.325
Property: Mass density, kg/m3 (Liquid); method: Vibrating tube method
Temperature, K	Mass density, kg/m3	uncertainty
293.2	821.63	.01

System: pentyl alcohol; phases: Liquid
Fixed: Pressure, kPa = 101.325
Property: Refractive index (Na D-line) (Liquid); method: Standard Abbe refractometry
Temperature, K	Refractive index (Na D-line)	uncertainty
293.2	1.41	.0002

System: pentyl alcohol; phases: Liquid
Fixed: Pressure, kPa = 101.325
Property: Mass density, kg/m3 (Liquid); method: Vibrating tube method
Temperature, K	Mass density, kg/m3	uncertainty
293.2	813.98	.01

System: n-butanol; phases: Liquid
Fixed: Pressure, kPa = 101.325
Property: Refractive index (Na D-line) (Liquid); method: Standard Abbe refractometry
Temperature, K	Refractive index (Na D-line)	uncertainty
293.2	1.3983	.0002

System: n-butanol; phases: Liquid
Fixed: Pressure, kPa = 101.325
Property: Mass density, kg/m3 (Liquid); method: Vibrating tube method
Temperature, K	Mass density, kg/m3	uncertainty
293.2	809.33	.01

System: water; phases: Liquid
Fixed: Pressure, kPa = 101.325
Property: Refractive index (Na D-line) (Liquid); method: Standard Abbe refractometry
Temperature, K	Refractive index (Na D-line)	uncertainty
293.2	1.3328	.0002

System: water; phases: Liquid
Fixed: Pressure, kPa = 101.325
Property: Mass density, kg/m3 (Liquid); method: Vibrating tube method
Temperature, K	Mass density, kg/m3	uncertainty
293.2	998.2	.01

System: methanoic acid + n-butanol + water; phases: Liquid mixture 1, Liquid mixture 2
Fixed: Pressure, kPa = 101.325
Fixed: Temperature, K = 298.2
Property: Mass fraction of n-butanol (Liquid mixture 1); method: Visual method
Mass fraction of methanoic acid	Mass fraction of n-butanol	uncertainty
0	.077	.001
.037	.08	.001
.059	.086	.001
.09	.088	.001
.123	.107	.001
.149	.119	.001
.174	.147	.001
.184	.199	.001
.194	.255	.001
.199	.33	.001
.2	.4	.001
.196	.46	.001
.191	.513	.001
.176	.561	.001
.16	.61	.001
.132	.646	.001
.1	.69	.001
.047	.746	.001
0	.797	.001

System: methanoic acid + n-butanol + water; phases: Liquid mixture 1, Liquid mixture 2
Property: Mass fraction of water (Liquid mixture 1); method: Titration method
Property: Mass fraction of methanoic acid (Liquid mixture 2); method: Titration method
Property: Mass fraction of water (Liquid mixture 2); method: Titration method
Temperature, K	Pressure, kPa	Mass fraction of methanoic acid	Mass fraction of water	uncertainty	Mass fraction of methanoic acid	uncertainty	Mass fraction of water	uncertainty
298.2	101.325	.0466	.8696	.001	.055	.001	.21	.001
298.2	101.325	.0646	.849	.001	.0778	.001	.2135	.001
298.2	101.325	.0808	.831	.001	.0998	.001	.216	.001
298.2	101.325	.0909	.8184	.001	.1181	.001	.2258	.001
298.2	101.325	.1049	.8033	.001	.14	.001	.231	.001
298.2	101.325	.125	.7823	.001	.1765	.001	.239	.001

System: methanoic acid + pentyl alcohol + water; phases: Liquid mixture 1, Liquid mixture 2
Fixed: Pressure, kPa = 101.325
Fixed: Temperature, K = 298.2
Property: Mass fraction of pentyl alcohol (Liquid mixture 1); method: Visual method
Mass fraction of methanoic acid	Mass fraction of pentyl alcohol	uncertainty
0	.019	.001
.097	.031	.001
.193	.037	.001
.287	.043	.001
.34	.045	.001
.381	.047	.001
.436	.052	.001
.473	.054	.001
.509	.106	.001
.511	.178	.001
.501	.252	.001
.472	.324	.001
.408	.408	.001
.367	.457	.001
.333	.5	.001
.253	.591	.001
.17	.681	.001
.087	.783	.001
0	.9	.001

System: methanoic acid + pentyl alcohol + water; phases: Liquid mixture 1, Liquid mixture 2
Property: Mass fraction of water (Liquid mixture 1); method: Titration method
Property: Mass fraction of methanoic acid (Liquid mixture 2); method: Titration method
Property: Mass fraction of water (Liquid mixture 2); method: Titration method
Temperature, K	Pressure, kPa	Mass fraction of methanoic acid	Mass fraction of water	uncertainty	Mass fraction of methanoic acid	uncertainty	Mass fraction of water	uncertainty
298.2	101.325	.064	.906	.001	.065	.001	.1241	.001
298.2	101.325	.1104	.8573	.001	.1117	.001	.1354	.001
298.2	101.325	.1477	.8179	.001	.159	.001	.1427	.001
298.2	101.325	.1965	.7663	.001	.21	.001	.1489	.001
298.2	101.325	.2305	.7303	.001	.2531	.001	.1551	.001
298.2	101.325	.2487	.7111	.001	.29	.001	.1625	.001

System: methanoic acid + amylcarbinol + water; phases: Liquid mixture 1, Liquid mixture 2
Fixed: Pressure, kPa = 101.325
Fixed: Temperature, K = 298.2
Property: Mass fraction of amylcarbinol (Liquid mixture 1); method: Visual method
Mass fraction of methanoic acid	Mass fraction of amylcarbinol	uncertainty
0	.005	.001
.098	.006	.001
.197	.01	.001
.312	.014	.001
.399	.018	.001
.488	.024	.001
.538	.035	.001
.573	.045	.001
.592	.111	.001
.58	.2	.001
.538	.283	.001
.512	.327	.001
.487	.37	.001
.446	.428	.001
.37	.53	.001
.273	.636	.001
.183	.732	.001
.093	.837	.001
0	.942	.001

System: methanoic acid + amylcarbinol + water; phases: Liquid mixture 2, Liquid mixture 1
Property: Mass fraction of water (Liquid mixture 2); method: Titration method
Property: Mass fraction of methanoic acid (Liquid mixture 1); method: Titration method
Property: Mass fraction of water (Liquid mixture 1); method: Titration method
Temperature, K	Pressure, kPa	Mass fraction of methanoic acid	Mass fraction of water	uncertainty	Mass fraction of methanoic acid	uncertainty	Mass fraction of water	uncertainty
298.2	101.325	.111	.07	.001	.1242	.001	.8583	.001
298.2	101.325	.173	.079	.001	.2277	.001	.7519	.001
298.2	101.325	.2323	.088	.001	.3105	.001	.6653	.001
298.2	101.325	.2837	.099	.001	.3696	.001	.602	.001
298.2	101.325	.3197	.105	.001	.4223	.001	.5422	.001
298.2	101.325	.399	.113	.001	.472	.001	.4792	.001

System: methanoic acid + 1-hydroxyheptane + water; phases: Liquid mixture 1, Liquid mixture 2
Fixed: Pressure, kPa = 101.325
Fixed: Temperature, K = 298.2
Property: Mass fraction of 1-hydroxyheptane (Liquid mixture 1); method: Visual method
Mass fraction of methanoic acid	Mass fraction of 1-hydroxyheptane	uncertainty
0	.001	.001
.109	.001	.001
.207	.002	.001
.299	.004	.001
.399	.013	.001
.496	.024	.001
.594	.026	.001
.653	.062	.001
.653	.111	.001
.647	.162	.001
.626	.211	.001
.596	.256	.001
.532	.355	.001
.452	.444	.001
.366	.549	.001
.274	.653	.001
.187	.75	.001
.095	.851	.001
0	.959	.001

System: methanoic acid + 1-hydroxyheptane + water; phases: Liquid mixture 2, Liquid mixture 1
Property: Mass fraction of water (Liquid mixture 2); method: Titration method
Property: Mass fraction of methanoic acid (Liquid mixture 1); method: Titration method
Property: Mass fraction of water (Liquid mixture 1); method: Titration method
Temperature, K	Pressure, kPa	Mass fraction of methanoic acid	Mass fraction of water	uncertainty	Mass fraction of methanoic acid	uncertainty	Mass fraction of water	uncertainty
298.2	101.325	.1037	.05	.001	.1325	.001	.8523	.001
298.2	101.325	.1663	.051	.001	.2401	.001	.7418	.001
298.2	101.325	.2194	.068	.001	.3188	.001	.6593	.001
298.2	101.325	.263	.075	.001	.3892	.001	.585	.001
298.2	101.325	.3123	.081	.001	.4444	.001	.522	.001
298.2	101.325	.3523	.086	.001	.4885	.001	.4733	.001
