Measured thermophysical data. Structure-making tendency of ionic liquids in the aqueous D-glucose solutions
Source: Fluid Phase Equilib., 2012, 10.1016/j.fluid.2011.12.012
Compound 1: 1-pentyl-3-methylimidazolium bromide, C9H17BrN2
Compound 2: 1-hexyl-3-methylimidazolium bromide, C10H19BrN2
Compound 3: D-glucose, C6H12O6, purity 99.6%
Compound 4: water, H2O

System: D-glucose + water + 1-pentyl-3-methylimidazolium bromide; phases: Liquid
Fixed: Pressure, kPa = 101
Property: Mass density, kg/m3 (Liquid); method: Vibrating tube method
Temperature, K	Molality, mol/kg of D-glucose	Solvent: Molality, mol/kg of 1-pentyl-3-methylimidazolium bromide	Mass density, kg/m3	uncertainty
288.15	0	.199	1008.56	.03
288.15	.0294	.199	1010.55	.03
288.15	.04	.199	1011.27	.03
288.15	.05	.199	1011.94	.03
288.15	.0608	.199	1012.68	.03
288.15	.0712	.199	1013.38	.03
288.15	.0819	.199	1014.1	.03
288.15	.0897	.199	1014.62	.03
288.15	.0997	.199	1015.29	.03
298.15	0	.199	1006.19	.03
298.15	.0294	.199	1008.17	.03
298.15	.04	.199	1008.89	.03
298.15	.05	.199	1009.56	.03
298.15	.0608	.199	1010.3	.03
298.15	.0712	.199	1011	.03
298.15	.0819	.199	1011.72	.03
298.15	.0897	.199	1012.25	.03
298.15	.0997	.199	1012.92	.03
308.15	0	.199	1002.92	.03
308.15	.0294	.199	1004.89	.03
308.15	.04	.199	1005.61	.03
308.15	.05	.199	1006.28	.03
308.15	.0608	.199	1007.01	.03
308.15	.0712	.199	1007.71	.03
308.15	.0819	.199	1008.43	.03
308.15	.0897	.199	1008.95	.03
308.15	.0997	.199	1009.63	.03
318.15	0	.199	998.93	.03
318.15	.0294	.199	1000.89	.03
318.15	.04	.199	1001.6	.03
318.15	.05	.199	1002.27	.03
318.15	.0608	.199	1003	.03
318.15	.0712	.199	1003.7	.03
318.15	.0819	.199	1004.42	.03
318.15	.0897	.199	1004.94	.03
318.15	.0997	.199	1005.62	.03
288.15	0	.2937	1012.93	.03
288.15	.0299	.2937	1014.94	.03
288.15	.0396	.2937	1015.6	.03
288.15	.0498	.2937	1016.29	.03
288.15	.06	.2937	1016.97	.03
288.15	.0708	.2937	1017.7	.03
288.15	.0807	.2937	1018.37	.03
288.15	.0888	.2937	1018.91	.03
288.15	.1	.2937	1019.66	.03
289.15	0	.2937	1010.41	.03
289.15	.0299	.2937	1012.4	.03
289.15	.0396	.2937	1013.06	.03
289.15	.0498	.2937	1013.74	.03
289.15	.06	.2937	1014.42	.03
289.15	.0708	.2937	1015.14	.03
289.15	.0807	.2937	1015.81	.03
289.15	.0888	.2937	1016.35	.03
289.15	.1	.2937	1017.1	.03
308.15	0	.2937	1006.97	.03
308.15	.0299	.2937	1008.95	.03
308.15	.0396	.2937	1009.6	.03
308.15	.0498	.2937	1010.28	.03
308.15	.06	.2937	1010.96	.03
308.15	.0708	.2937	1011.68	.03
308.15	.0807	.2937	1012.34	.03
308.15	.0888	.2937	1012.88	.03
308.15	.1	.2937	1013.63	.03
318.15	0	.2937	1002.83	.03
318.15	.0299	.2937	1004.79	.03
318.15	.0396	.2937	1005.43	.03
318.15	.0498	.2937	1006.11	.03
318.15	.06	.2937	1006.78	.03
318.15	.0708	.2937	1007.5	.03
318.15	.0807	.2937	1008.15	.03
318.15	.0888	.2937	1008.68	.03
318.15	.1	.2937	1009.43	.03
288.15	0	.3975	1017.54	.03
288.15	.0299	.3975	1019.54	.03
288.15	.0401	.3975	1020.22	.03
288.15	.0506	.3975	1020.93	.03
288.15	.0599	.3975	1021.55	.03
288.15	.0695	.3975	1022.2	.03
288.15	.0799	.3975	1022.89	.03
288.15	.0898	.3975	1023.55	.03
288.15	.1006	.3975	1024.28	.03
298.15	0	.3975	1014.94	.03
298.15	.0299	.3975	1016.91	.03
298.15	.0401	.3975	1017.58	.03
298.15	.0506	.3975	1018.28	.03
298.15	.0599	.3975	1018.9	.03
298.15	.0695	.3975	1019.54	.03
298.15	.0799	.3975	1020.23	.03
298.15	.0898	.3975	1020.89	.03
298.15	.1006	.3975	1021.61	.03
308.15	0	.3975	1011.48	.03
308.15	.0299	.3975	1013.43	.03
308.15	.0401	.3975	1014.1	.03
308.15	.0506	.3975	1014.79	.03
308.15	.0599	.3975	1015.4	.03
308.15	.0695	.3975	1016.04	.03
308.15	.0799	.3975	1016.72	.03
308.15	.0898	.3975	1017.38	.03
308.15	.1006	.3975	1018.1	.03
318.15	0	.3975	1007.38	.03
318.15	.0299	.3975	1009.31	.03
318.15	.0401	.3975	1009.97	.03
318.15	.0506	.3975	1010.66	.03
318.15	.0599	.3975	1011.26	.03
318.15	.0695	.3975	1011.89	.03
318.15	.0799	.3975	1012.57	.03
318.15	.0898	.3975	1013.22	.03
318.15	.1006	.3975	1013.93	.03
288.15	0	.496	1021.84	.03
288.15	.0301	.496	1023.84	.03
288.15	.0408	.496	1024.55	.03
288.15	.0501	.496	1025.17	.03
288.15	.0605	.496	1025.87	.03
288.15	.0699	.496	1026.5	.03
288.15	.0797	.496	1027.15	.03
288.15	.0905	.496	1027.89	.03
288.15	.1014	.496	1028.61	.03
298.15	0	.496	1019.01	.03
298.15	.0301	.496	1020.98	.03
298.15	.0408	.496	1021.69	.03
298.15	.0501	.496	1022.3	.03
298.15	.0605	.496	1022.99	.03
298.15	.0699	.496	1023.62	.03
298.15	.0797	.496	1024.27	.03
298.15	.0905	.496	1024.99	.03
298.15	.1014	.496	1025.72	.03
308.15	0	.496	1015.4	.03
308.15	.0301	.496	1017.33	.03
308.15	.0408	.496	1018.03	.03
308.15	.0501	.496	1018.63	.03
308.15	.0605	.496	1019.3	.03
308.15	.0699	.496	1019.92	.03
308.15	.0797	.496	1020.56	.03
308.15	.0905	.496	1021.27	.03
308.15	.1014	.496	1021.98	.03
318.15	0	.496	1011.03	.03
318.15	.0301	.496	1012.95	.03
318.15	.0408	.496	1013.64	.03
318.15	.0501	.496	1014.24	.03
318.15	.0605	.496	1014.92	.03
318.15	.0699	.496	1015.53	.03
318.15	.0797	.496	1016.18	.03
318.15	.0905	.496	1016.88	.03
318.15	.1014	.496	1017.6	.03

System: D-glucose + water + 1-hexyl-3-methylimidazolium bromide; phases: Liquid
Fixed: Pressure, kPa = 101
Property: Mass density, kg/m3 (Liquid); method: Vibrating tube method
Temperature, K	Molality, mol/kg of D-glucose	Solvent: Molality, mol/kg of 1-hexyl-3-methylimidazolium bromide	Mass density, kg/m3	uncertainty
288.15	0	.198	1008.27	.03
288.15	.0302	.198	1010.31	.03
288.15	.0402	.198	1010.99	.03
288.15	.0499	.198	1011.65	.03
288.15	.0596	.198	1012.31	.03
288.15	.0699	.198	1013.01	.03
288.15	.0781	.198	1013.57	.03
288.15	.0896	.198	1014.35	.03
288.15	.0999	.198	1015.05	.03
298.15	0	.198	1005.84	.03
298.15	.0302	.198	1007.87	.03
298.15	.0402	.198	1008.54	.03
298.15	.0499	.198	1009.2	.03
298.15	.0596	.198	1009.86	.03
298.15	.0699	.198	1010.55	.03
298.15	.0781	.198	1011.11	.03
298.15	.0896	.198	1011.88	.03
298.15	.0999	.198	1012.58	.03
308.15	0	.198	1002.53	.03
308.15	.0302	.198	1004.55	.03
308.15	.0402	.198	1005.22	.03
308.15	.0499	.198	1005.88	.03
308.15	.0596	.198	1006.53	.03
308.15	.0699	.198	1007.23	.03
308.15	.0781	.198	1007.78	.03
308.15	.0896	.198	1008.56	.03
308.15	.0999	.198	1009.26	.03
318.15	0	.198	998.52	.03
318.15	.0302	.198	1000.52	.03
318.15	.0402	.198	1001.19	.03
318.15	.0499	.198	1001.84	.03
318.15	.0596	.198	1002.5	.03
318.15	.0699	.198	1003.19	.03
318.15	.0781	.198	1003.75	.03
318.15	.0896	.198	1004.52	.03
318.15	.0999	.198	1005.21	.03
288.15	0	.2999	1012.95	.03
288.15	.0296	.2999	1014.93	.03
288.15	.0392	.2999	1015.58	.03
288.15	.0474	.2999	1016.13	.03
288.15	.0605	.2999	1017.01	.03
288.15	.0687	.2999	1017.56	.03
288.15	.0811	.2999	1018.39	.03
288.15	.0895	.2999	1018.96	.03
288.15	.0992	.2999	1019.61	.03
298.15	0	.2999	1010.32	.03
298.15	.0296	.2999	1012.28	.03
298.15	.0392	.2999	1012.92	.03
298.15	.0474	.2999	1013.46	.03
298.15	.0605	.2999	1014.33	.03
298.15	.0687	.2999	1014.88	.03
298.15	.0811	.2999	1015.71	.03
298.15	.0895	.2999	1016.27	.03
298.15	.0992	.2999	1016.92	.03
308.15	0	.2999	1006.76	.03
308.15	.0296	.2999	1008.72	.03
308.15	.0392	.2999	1009.36	.03
308.15	.0474	.2999	1009.9	.03
308.15	.0605	.2999	1010.78	.03
308.15	.0687	.2999	1011.32	.03
308.15	.0811	.2999	1012.15	.03
308.15	.0895	.2999	1012.72	.03
308.15	.0992	.2999	1013.37	.03
318.15	0	.2999	1002.7	.03
318.15	.0296	.2999	1004.64	.03
318.15	.0392	.2999	1005.28	.03
318.15	.0474	.2999	1005.83	.03
318.15	.0605	.2999	1006.69	.03
318.15	.0687	.2999	1007.24	.03
318.15	.0811	.2999	1008.07	.03
318.15	.0895	.2999	1008.64	.03
318.15	.0992	.2999	1009.29	.03
288.15	0	.3977	1017.14	.03
288.15	.0304	.3977	1019.16	.03
288.15	.0397	.3977	1019.78	.03
288.15	.0498	.3977	1020.45	.03
288.15	.0601	.3977	1021.14	.03
288.15	.07	.3977	1021.8	.03
288.15	.0797	.3977	1022.45	.03
288.15	.0897	.3977	1023.12	.03
288.15	.0994	.3977	1023.76	.03
298.15	0	.3977	1014.34	.03
298.15	.0304	.3977	1016.33	.03
298.15	.0397	.3977	1016.94	.03
298.15	.0498	.3977	1017.61	.03
298.15	.0601	.3977	1018.29	.03
298.15	.07	.3977	1018.95	.03
298.15	.0797	.3977	1019.59	.03
298.15	.0897	.3977	1020.25	.03
298.15	.0994	.3977	1020.89	.03
308.15	0	.3977	1010.74	.03
308.15	.0304	.3977	1012.72	.03
308.15	.0397	.3977	1013.33	.03
308.15	.0498	.3977	1014	.03
308.15	.0601	.3977	1014.68	.03
308.15	.07	.3977	1015.33	.03
308.15	.0797	.3977	1015.97	.03
308.15	.0897	.3977	1016.63	.03
308.15	.0994	.3977	1017.28	.03
318.15	0	.3977	1006.42	.03
318.15	.0304	.3977	1008.4	.03
318.15	.0397	.3977	1009	.03
318.15	.0498	.3977	1009.67	.03
318.15	.0601	.3977	1010.35	.03
318.15	.07	.3977	1011.01	.03
318.15	.0797	.3977	1011.65	.03
318.15	.0897	.3977	1012.32	.03
318.15	.0994	.3977	1012.97	.03
288.15	0	.4939	1021.14	.03
288.15	.0299	.4939	1023.11	.03
288.15	.0401	.4939	1023.79	.03
288.15	.0506	.4939	1024.49	.03
288.15	.0597	.4939	1025.09	.03
288.15	.0695	.4939	1025.75	.03
288.15	.0807	.4939	1026.5	.03
288.15	.0906	.4939	1027.16	.03
288.15	.0991	.4939	1027.73	.03
298.15	0	.4939	1018.16	.03
298.15	.0299	.4939	1020.09	.03
298.15	.0401	.4939	1020.76	.03
298.15	.0506	.4939	1021.45	.03
298.15	.0597	.4939	1022.05	.03
298.15	.0695	.4939	1022.7	.03
298.15	.0807	.4939	1023.44	.03
298.15	.0906	.4939	1024.1	.03
298.15	.0991	.4939	1024.66	.03
308.15	0	.4939	1014.34	.03
308.15	.0299	.4939	1016.26	.03
308.15	.0401	.4939	1016.93	.03
308.15	.0506	.4939	1017.62	.03
308.15	.0597	.4939	1018.22	.03
308.15	.0695	.4939	1018.87	.03
308.15	.0807	.4939	1019.62	.03
308.15	.0906	.4939	1020.26	.03
308.15	.0991	.4939	1020.83	.03
318.15	0	.4939	1010.05	.03
318.15	.0299	.4939	1011.95	.03
318.15	.0401	.4939	1012.61	.03
318.15	.0506	.4939	1013.29	.03
318.15	.0597	.4939	1013.89	.03
318.15	.0695	.4939	1014.53	.03
318.15	.0807	.4939	1015.27	.03
318.15	.0906	.4939	1015.92	.03
318.15	.0991	.4939	1016.48	.03
