Measured thermophysical data. Measurement and correlation of ternary vapor-liquid equilibria for methanol + glycerol + fatty acid methyl ester (methyl laurate, methyl myristate, methyl palmitate) systems at elevated temperatures and pressures
Source: Fluid Phase Equilib., 2016, 10.1016/j.fluid.2016.05.007
Compound 1: methanol, CH4O, purity 99.8%
Compound 2: glycerol, C3H8O3, purity 99.5%
Compound 3: methyl laurate, C13H26O2, purity 99.0%
Compound 4: methyl myristate, C15H30O2, purity 98.0%
Compound 5: methyl palmitate, C17H34O2, purity 97.0%

System: glycerol + methanol + methyl laurate; phases: Liquid, Gas
Property: Vapor or sublimation pressure, kPa (Liquid); method: Closed cell (Static) method
Temperature, K	Mole fraction of methanol	Mole fraction of glycerol	Vapor or sublimation pressure, kPa	uncertainty
493.2	.801	.0459	4209	
493.2	.8304	.0381	4393	
493.2	.8643	.0304	4588	
493.2	.8952	.0237	4788	
493.2	.8315	.0821	4236	
493.2	.8667	.0638	4474	
493.2	.8849	.0544	4735	
493.2	.9145	.035	4871	
493.2	.8365	.1243	4371	
493.2	.8647	.1045	4639	
493.2	.8758	.0966	4726	
493.2	.8929	.081	4826	
522.3	.7749	.0434	6114	
522.3	.8152	.0369	6411	
522.3	.839	.0324	6754	
522.3	.8703	.0256	7115	
522.3	.8947	.0207	7393	
522.3	.9205	.0151	7776	
522.3	.8458	.0757	6746	
522.3	.862	.0682	7014	
522.3	.8804	.058	7147	
522.3	.9017	.0466	7414	
522.3	.8546	.1147	7091	
522.3	.8707	.1024	7187	
522.3	.8899	.0871	7417	
522.3	.9096	.0706	7586	

System: glycerol + methanol + methyl laurate; phases: Gas, Liquid
Property: Mole fraction of methanol (Gas); method: Chromatography
Temperature, K	Mole fraction of methanol	Mole fraction of glycerol	Mole fraction of methanol	uncertainty
493.2	.801	.0459	.9954	
493.2	.8304	.0381	.9951	
493.2	.8643	.0304	.9969	
493.2	.8952	.0237	.997	
493.2	.8315	.0821	.9961	
493.2	.8667	.0638	.9969	
493.2	.8849	.0544	.9961	
493.2	.9145	.035	.9975	
493.2	.8365	.1243	.9974	
493.2	.8647	.1045	.9972	
493.2	.8758	.0966	.9966	
493.2	.8929	.081	.9975	
522.3	.7749	.0434	.9896	
522.3	.8152	.0369	.9859	
522.3	.839	.0324	.9846	
522.3	.8703	.0256	.9835	
522.3	.8947	.0207	.9857	
522.3	.9205	.0151	.9958	
522.3	.8458	.0757	.9826	
522.3	.862	.0682	.9829	
522.3	.8804	.058	.9851	
522.3	.9017	.0466	.9853	
522.3	.8546	.1147	.9922	
522.3	.8707	.1024	.9872	
522.3	.8899	.0871	.9885	
522.3	.9096	.0706	.997	

System: glycerol + methanol + methyl laurate; phases: Gas, Liquid
Property: Mole fraction of glycerol (Gas); method: Chromatography
Temperature, K	Mole fraction of methanol	Mole fraction of glycerol	Mole fraction of glycerol	uncertainty
493.2	.801	.0459	.0006	
493.2	.8304	.0381	.0007	
493.2	.8643	.0304	.0004	
493.2	.8952	.0237	.0003	
493.2	.8315	.0821	.0007	
493.2	.8667	.0638	.0004	
493.2	.8849	.0544	.0008	
493.2	.9145	.035	.0005	
493.2	.8365	.1243	.0007	
493.2	.8647	.1045	.0007	
493.2	.8758	.0966	.0012	
493.2	.8929	.081	.0006	
522.3	.7749	.0434	.002	
522.3	.8152	.0369	.0027	
522.3	.839	.0324	.0029	
522.3	.8703	.0256	.003	
522.3	.8947	.0207	.0024	
522.3	.9205	.0151	.0005	
522.3	.8458	.0757	.0061	
522.3	.862	.0682	.0058	
522.3	.8804	.058	.0042	
522.3	.9017	.0466	.0047	
522.3	.8546	.1147	.0036	
522.3	.8707	.1024	.0067	
522.3	.8899	.0871	.0066	
522.3	.9096	.0706	.0013	

System: glycerol + methanol + methyl myristate; phases: Liquid, Gas
Property: Vapor or sublimation pressure, kPa (Liquid); method: Closed cell (Static) method
Temperature, K	Mole fraction of methanol	Mole fraction of glycerol	Vapor or sublimation pressure, kPa	uncertainty
493.1	.8717	.0286	4857	
493.1	.9024	.0211	4901	
493.1	.8695	.0612	4701	
493.1	.9123	.0415	4921	
493.1	.8721	.1001	4743	
493.1	.8987	.0821	4846	
522.6	.8697	.0281	7396	
522.6	.9	.022	7643	
522.6	.8721	.0658	7354	
522.6	.9149	.0396	7533	
522.6	.8671	.1038	7411	
522.6	.9024	.0785	7725	

System: glycerol + methanol + methyl myristate; phases: Gas, Liquid
Property: Mole fraction of methanol (Gas); method: Chromatography
Temperature, K	Mole fraction of methanol	Mole fraction of glycerol	Mole fraction of methanol	uncertainty
493.1	.8717	.0286	.9978	
493.1	.9024	.0211	.9985	
493.1	.8695	.0612	.998	
493.1	.9123	.0415	.9977	
493.1	.8721	.1001	.9979	
493.1	.8987	.0821	.999	
522.6	.8697	.0281	.9941	
522.6	.9	.022	.9885	
522.6	.8721	.0658	.9866	
522.6	.9149	.0396	.9856	
522.6	.8671	.1038	.9862	
522.6	.9024	.0785	.9865	

System: glycerol + methanol + methyl myristate; phases: Gas, Liquid
Property: Mole fraction of glycerol (Gas); method: Chromatography
Temperature, K	Mole fraction of methanol	Mole fraction of glycerol	Mole fraction of glycerol	uncertainty
493.1	.8717	.0286	.0006	
493.1	.9024	.0211	.0003	
493.1	.8695	.0612	.0007	
493.1	.9123	.0415	.0002	
493.1	.8721	.1001	.0009	
493.1	.8987	.0821	.0009	
522.6	.8697	.0281	.0014	
522.6	.9	.022	.0025	
522.6	.8721	.0658	.0059	
522.6	.9149	.0396	.0065	
522.6	.8671	.1038	.0099	
522.6	.9024	.0785	.0013	

System: glycerol + methanol + methyl palmitate; phases: Liquid, Gas
Property: Vapor or sublimation pressure, kPa (Liquid); method: Closed cell (Static) method
Temperature, K	Mole fraction of methanol	Mole fraction of glycerol	Vapor or sublimation pressure, kPa	uncertainty
493	.885	.0205	4780	
493	.9094	.021	4942	
493	.9421	.0144	5178	
493	.8792	.0622	4690	
493	.9102	.0436	5003	
493	.8871	.0843	4790	
493	.9132	.0672	5102	
523.1	.8731	.0221	7332	
523.1	.9137	.0247	7667	
523.1	.8812	.0611	7229	
523.1	.9126	.0425	7736	
523.1	.8781	.0893	7356	
523.1	.9013	.0702	7775	

System: glycerol + methanol + methyl palmitate; phases: Gas, Liquid
Property: Mole fraction of methanol (Gas); method: Chromatography
Temperature, K	Mole fraction of methanol	Mole fraction of glycerol	Mole fraction of methanol	uncertainty
493	.885	.0205	.9988	
493	.9094	.021	.9987	
493	.9421	.0144	.9994	
493	.8792	.0622	.9986	
493	.9102	.0436	.999	
493	.8871	.0843	.9989	
493	.9132	.0672	.9993	
523.1	.8731	.0221	.9988	
523.1	.9137	.0247	.9998	
523.1	.8812	.0611	.9996	
523.1	.9126	.0425	.9991	
523.1	.8781	.0893	.9987	
523.1	.9013	.0702	.9991	

System: glycerol + methanol + methyl palmitate; phases: Gas, Liquid
Property: Mole fraction of glycerol (Gas); method: Chromatography
Temperature, K	Mole fraction of methanol	Mole fraction of glycerol	Mole fraction of glycerol	uncertainty
493	.885	.0205	.0006	
493	.9094	.021	.0006	
493	.9421	.0144	.0002	
493	.8792	.0622	.001	
493	.9102	.0436	.0003	
493	.8871	.0843	.0006	
493	.9132	.0672	.0003	
523.1	.8731	.0221	.0006	
523.1	.9137	.0247	.0001	
523.1	.8812	.0611	.0001	
523.1	.9126	.0425	.0002	
523.1	.8781	.0893	.0004	
523.1	.9013	.0702	.0006	
