Measured thermophysical data. High-pressure phase behavior of binary mixtures containing methylpyrrolidinium derivative ionic liquids and carbon dioxide
Source: Fluid Phase Equilib., 2012, 10.1016/j.fluid.2012.07.006
Compound 1: 1-methyl-1-propylpyrrolidinium bis[(trifluoromethyl)sulfonyl]imide, C10H18F6N2O4S2, purity 99%
Compound 2: 1-pentyl-1-methylpyrrolidinium 1,1,1-trifluoro-N-[(trifluoromethyl)sulfonyl]methanesulfonamide, C12H22F6N2O4S2, purity 99%
Compound 3: N-heptyl-N-methylpyrrolidinium bis(trifluoromethylsulfonyl)imide, C14H26F6N2O4S2, purity 99%
Compound 4: N-nonyl-N-methylpyrrolidinium bis(trifluoromethylsulfonyl)imde, C16H30F6N2O4S2, purity 99%
Compound 5: carbon dioxide, CO2, purity 99.995%

System: carbon dioxide + 1-methyl-1-propylpyrrolidinium bis[(trifluoromethyl)sulfonyl]imide; phases: Liquid, Gas
Property: Vapor or sublimation pressure, kPa (Liquid); method: Closed cell (Static) method
Temperature, K	Mole fraction of carbon dioxide	Vapor or sublimation pressure, kPa	uncertainty
303.15	.1863	520	10
313.15	.1863	730	10
323.15	.1863	850	10
333.15	.1863	1090	10
343.15	.1863	1280	10
353.15	.1863	1520	10
363.15	.1863	1890	10
373.15	.1863	2010	10
303.15	.3387	1410	10
313.15	.3387	1740	10
323.15	.3387	2170	10
333.15	.3387	2680	10
343.15	.3387	3020	10
353.15	.3387	3450	10
363.15	.3387	4030	10
373.15	.3387	4420	10
303.15	.4465	2080	10
313.15	.4465	2670	10
323.15	.4465	3170	10
333.15	.4465	3860	10
343.15	.4465	4380	10
353.15	.4465	5030	10
363.15	.4465	5740	10
373.15	.4465	6540	10
303.15	.5605	4240	10
313.15	.5605	5030	10
323.15	.5605	5970	10
333.15	.5605	6880	10
343.15	.5605	8030	10
353.15	.5605	9190	10
363.15	.5605	10480	10
373.15	.5605	11600	10
303.15	.6356	6210	10
313.15	.6356	7380	10
323.15	.6356	8460	10
333.15	.6356	9980	10
343.15	.6356	11420	10
353.15	.6356	13150	10
363.15	.6356	15350	10
373.15	.6356	16930	10
303.15	.7189	9660	10
313.15	.7189	10870	10
323.15	.7189	13350	10
333.15	.7189	16850	10
343.15	.7189	19250	10
353.15	.7189	22600	10
363.15	.7189	25060	10
373.15	.7189	27480	10
303.15	.7866	26320	10
313.15	.7866	29350	10
323.15	.7866	32150	10
333.15	.7866	35590	10
343.15	.7866	38480	10
353.15	.7866	41420	10
363.15	.7866	44310	10
373.15	.7866	47100	10

System: carbon dioxide + 1-pentyl-1-methylpyrrolidinium 1,1,1-trifluoro-N-[(trifluoromethyl)sulfonyl]methanesulfonamide; phases: Liquid, Gas
Property: Vapor or sublimation pressure, kPa (Liquid); method: Closed cell (Static) method
Temperature, K	Mole fraction of carbon dioxide	Vapor or sublimation pressure, kPa	uncertainty
303.15	.1983	270	10
313.15	.1983	430	10
323.15	.1983	510	10
333.15	.1983	570	10
343.15	.1983	730	10
353.15	.1983	800	10
363.15	.1983	930	10
373.15	.1983	1060	10
303.15	.3297	490	10
313.15	.3297	570	10
323.15	.3297	710	10
333.15	.3297	820	10
343.15	.3297	1010	10
353.15	.3297	1140	10
363.15	.3297	1200	10
373.15	.3297	1330	10
303.15	.411	1150	10
313.15	.411	1360	10
323.15	.411	1730	10
333.15	.411	1860	10
343.15	.411	2270	10
353.15	.411	2540	10
363.15	.411	2820	10
373.15	.411	3040	10
303.15	.5073	2400	10
313.15	.5073	2950	10
323.15	.5073	3550	10
333.15	.5073	4110	10
343.15	.5073	4750	10
353.15	.5073	5450	10
363.15	.5073	5960	10
373.15	.5073	6550	10
303.15	.6287	4120	10
313.15	.6287	5420	10
323.15	.6287	6230	10
333.15	.6287	7910	10
343.15	.6287	9390	10
353.15	.6287	10880	10
363.15	.6287	12210	10
373.15	.6287	14240	10
303.15	.7009	5620	10
313.15	.7009	8460	10
323.15	.7009	11270	10
333.15	.7009	14810	10
343.15	.7009	18130	10
353.15	.7009	21210	10
363.15	.7009	25430	10
373.15	.7009	31300	10
303.15	.7469	12430	10
313.15	.7469	19060	10
323.15	.7469	23450	10
333.15	.7469	26060	10
343.15	.7469	31430	10
353.15	.7469	35680	10
363.15	.7469	37150	10
373.15	.7469	40270	10
303.15	.7853	26320	10
313.15	.7853	32350	10
323.15	.7853	37150	10
333.15	.7853	41590	10
343.15	.7853	44480	10
353.15	.7853	48420	10
363.15	.7853	52310	10
373.15	.7853	55100	10

System: carbon dioxide + N-heptyl-N-methylpyrrolidinium bis(trifluoromethylsulfonyl)imide; phases: Liquid, Gas
Property: Vapor or sublimation pressure, kPa (Liquid); method: Closed cell (Static) method
Temperature, K	Mole fraction of carbon dioxide	Vapor or sublimation pressure, kPa	uncertainty
303.15	.3015	260	10
313.15	.3015	450	10
323.15	.3015	580	10
333.15	.3015	730	10
343.15	.3015	950	10
353.15	.3015	1050	10
363.15	.3015	1200	10
373.15	.3015	1320	10
303.15	.5204	1550	10
313.15	.5204	2190	10
323.15	.5204	2570	10
333.15	.5204	2960	10
343.15	.5204	3490	10
353.15	.5204	3950	10
363.15	.5204	4290	10
373.15	.5204	4650	10
303.15	.5907	3470	10
313.15	.5907	3650	10
323.15	.5907	4050	10
333.15	.5907	4660	10
343.15	.5907	5550	10
353.15	.5907	6350	10
363.15	.5907	7020	10
373.15	.5907	7680	10
303.15	.6796	4160	10
313.15	.6796	5410	10
323.15	.6796	6640	10
333.15	.6796	7900	10
343.15	.6796	9040	10
353.15	.6796	10520	10
363.15	.6796	11990	10
373.15	.6796	13370	10
303.15	.7195	5060	10
313.15	.7195	6530	10
323.15	.7195	7940	10
333.15	.7195	9330	10
343.15	.7195	11460	10
353.15	.7195	13980	10
363.15	.7195	16040	10
373.15	.7195	18040	10
303.15	.7728	12040	10
313.15	.7728	17410	10
323.15	.7728	21010	10
333.15	.7728	24540	10
343.15	.7728	26930	10
353.15	.7728	29570	10
363.15	.7728	32950	10
373.15	.7728	34700	10
303.15	.8102	24880	10
313.15	.8102	29420	10
323.15	.8102	34080	10
333.15	.8102	37870	10
343.15	.8102	41680	10
353.15	.8102	44050	10
363.15	.8102	47480	10
373.15	.8102	50380	10
303.15	.8534	43430	10
313.15	.8534	47600	10
323.15	.8534	51630	10
333.15	.8534	54760	10
343.15	.8534	58320	10
353.15	.8534	63230	10
363.15	.8534	68710	10
373.15	.8534	72240	10

System: carbon dioxide + N-nonyl-N-methylpyrrolidinium bis(trifluoromethylsulfonyl)imde; phases: Liquid, Gas
Property: Vapor or sublimation pressure, kPa (Liquid); method: Closed cell (Static) method
Temperature, K	Mole fraction of carbon dioxide	Vapor or sublimation pressure, kPa	uncertainty
303.15	.323	260	10
313.15	.323	440	10
323.15	.323	650	10
333.15	.323	880	10
343.15	.323	1070	10
353.15	.323	1270	10
363.15	.323	1490	10
373.15	.323	1690	10
303.15	.4431	840	10
313.15	.4431	1230	10
323.15	.4431	1620	10
333.15	.4431	2020	10
343.15	.4431	2550	10
353.15	.4431	3160	10
363.15	.4431	3760	10
373.15	.4431	4190	10
303.15	.5386	1650	10
313.15	.5386	2320	10
323.15	.5386	3080	10
333.15	.5386	3640	10
343.15	.5386	4380	10
353.15	.5386	5050	10
363.15	.5386	5800	10
373.15	.5386	6490	10
303.15	.6365	3560	10
313.15	.6365	4770	10
323.15	.6365	5940	10
333.15	.6365	6760	10
343.15	.6365	8010	10
353.15	.6365	9390	10
363.15	.6365	10540	10
373.15	.6365	11330	10
303.15	.7212	4990	10
313.15	.7212	6390	10
323.15	.7212	7880	10
333.15	.7212	9180	10
343.15	.7212	11420	10
353.15	.7212	13090	10
363.15	.7212	14710	10
373.15	.7212	16070	10
303.15	.7633	6460	10
313.15	.7633	8270	10
323.15	.7633	10350	10
333.15	.7633	13270	10
343.15	.7633	15810	10
353.15	.7633	18630	10
363.15	.7633	21080	10
373.15	.7633	23170	10
303.15	.8198	17070	10
313.15	.8198	19780	10
323.15	.8198	22520	10
333.15	.8198	25040	10
343.15	.8198	28330	10
353.15	.8198	30930	10
363.15	.8198	33510	10
373.15	.8198	36580	10
