Measured thermophysical data. High pressure phase behaviour of the CO2 + 1-decanol + n-dodecane system
Source: Fluid Phase Equilib., 2015, 10.1016/j.fluid.2015.07.020
Compound 1: 1-decanol, C10H22O, purity 99%
Compound 2: n-dodecane, C12H26, purity 99%
Compound 3: carbon dioxide, CO2, purity 99.9%

System: 1-decanol + n-dodecane + carbon dioxide; phases: Liquid, Gas
Property: Mass fraction of carbon dioxide (Liquid); method: Phase equilibration
Solvent: Mass ratio of component to other component of binary solvent of 1-decanol	Temperature, K	Pressure, kPa	Mass fraction of carbon dioxide	uncertainty
.1	581.35	6370	.605	.0000605
.1	581.35	6740	.518	.0000518
.1	581.35	6900	.451	.0000451
.1	581.95	7380	.369	.0000369
.1	581.55	7400	.308	.0000308
.1	581.55	7380	.236	.0000236
.1	581.55	7440	.187	.0000187
.1	581.75	7570	.131	.0000131
.1	581.55	7640	.082	.0000082
.1	581.45	7500	.055	.0000055
.1	581.55	7640	.028	.0000028
.1	581.45	7590	.017	.0000017
.1	591.25	7640	.605	.0000605
.1	591.45	8220	.518	.0000518
.1	591.35	8500	.451	.0000451
.1	591.45	8940	.369	.0000369
.1	591.15	9050	.308	.0000308
.1	591.15	9060	.236	.0000236
.1	590.95	9110	.187	.0000187
.1	591.35	9250	.131	.0000131
.1	591.65	9380	.082	.0000082
.1	591.65	9270	.055	.0000055
.1	591.75	9210	.028	.0000028
.1	591.65	8990	.017	.0000017
.1	600.95	8870	.605	.0000605
.1	601.25	9640	.518	.0000518
.1	601.15	10120	.451	.0000451
.1	601.05	10670	.369	.0000369
.1	600.85	10880	.308	.0000308
.1	600.75	10980	.236	.0000236
.1	600.75	11080	.187	.0000187
.1	600.95	11110	.131	.0000131
.1	601.25	11110	.082	.0000082
.1	601.35	10990	.055	.0000055
.1	601.55	10680	.028	.0000028
.1	601.45	10270	.017	.0000017
.1	610.95	10120	.605	.0000605
.1	611.05	11080	.518	.0000518
.1	610.95	11720	.451	.0000451
.1	611.65	12590	.369	.0000369
.1	611.45	12870	.308	.0000308
.1	611.25	13080	.236	.0000236
.1	611.25	13110	.187	.0000187
.1	611.55	13120	.131	.0000131
.1	610.95	12790	.082	.0000082
.1	611.15	12750	.055	.0000055
.1	611.25	11940	.028	.0000028
.1	611.25	11230	.017	.0000017
.1	621.15	11420	.605	.0000605
.1	621.45	12600	.518	.0000518
.1	621.45	13400	.451	.0000451
.1	621.65	14310	.369	.0000369
.1	621.95	14660	.308	.0000308
.1	621.75	14910	.236	.0000236
.1	621.85	14930	.187	.0000187
.1	622.25	14920	.131	.0000131
.1	621.35	14420	.082	.0000082
.1	621.35	14210	.055	.0000055
.1	621.45	13060	.028	.0000028
.1	621.55	12150	.017	.0000017
.2	581.05	6380	.608	.0000608
.2	583.85	7090	.586	.0000586
.2	581.75	7090	.522	.0000522
.2	581.15	6900	.478	.0000478
.2	582.45	7430	.428	.0000428
.2	583.15	7660	.367	.0000367
.2	583.05	7690	.301	.0000301
.2	581.05	7270	.226	.0000226
.2	581.25	7410	.171	.0000171
.2	582.05	7640	.122	.0000122
.2	581.25	7240	.078	.0000078
.2	583.05	7710	.056	.0000056
.2	581.35	7460	.025	.0000025
.2	581.55	7590	.018	.0000018
.2	591.25	7590	.608	.0000608
.2	591.25	7970	.586	.0000586
.2	591.75	8500	.522	.0000522
.2	591.25	8460	.478	.0000478
.2	592.15	8950	.428	.0000428
.2	593.45	9430	.367	.0000367
.2	592.75	9410	.301	.0000301
.2	591.15	9000	.226	.0000226
.2	591.05	9170	.171	.0000171
.2	591.65	9420	.122	.0000122
.2	591.55	9070	.078	.0000078
.2	591.65	9150	.056	.0000056
.2	591.55	9000	.025	.0000025
.2	591.55	9020	.018	.0000018
.2	601.45	8800	.608	.0000608
.2	601.05	9270	.586	.0000586
.2	601.45	9890	.522	.0000522
.2	601.45	10030	.478	.0000478
.2	601.75	10570	.428	.0000428
.2	602.95	11180	.367	.0000367
.2	602.35	11170	.301	.0000301
.2	601.35	11110	.226	.0000226
.2	600.95	11220	.171	.0000171
.2	601.45	11360	.122	.0000122
.2	601.45	10860	.078	.0000078
.2	601.15	10810	.056	.0000056
.2	601.25	10200	.025	.0000025
.2	600.95	10330	.018	.0000018
.2	611.15	9920	.608	.0000608
.2	610.25	10420	.586	.0000586
.2	611.35	11300	.522	.0000522
.2	611.15	11520	.478	.0000478
.2	611.15	12090	.428	.0000428
.2	611.55	12700	.367	.0000367
.2	611.25	13000	.301	.0000301
.2	610.95	12940	.226	.0000226
.2	610.45	13080	.171	.0000171
.2	612.05	13360	.122	.0000122
.2	611.15	12490	.078	.0000078
.2	611.15	12320	.056	.0000056
.2	610.95	11440	.025	.0000025
.2	610.95	11440	.018	.0000018
.2	620.85	11060	.608	.0000608
.2	619.95	11500	.586	.0000586
.2	622.15	12770	.522	.0000522
.2	620.85	12990	.478	.0000478
.2	621.25	13660	.428	.0000428
.2	622.35	14530	.367	.0000367
.2	621.95	14880	.301	.0000301
.2	622.05	14820	.226	.0000226
.2	620.35	14780	.171	.0000171
.2	621.95	15030	.122	.0000122
.2	620.95	13940	.078	.0000078
.2	621.35	13630	.056	.0000056
.2	621.25	12430	.025	.0000025
.2	621.25	12320	.018	.0000018
.6	581.15	6980	.621	.0000621
.6	581.15	7430	.533	.0000533
.6	581.15	9070	.442	.0000442
.6	581.15	10580	.369	.0000369
.6	581.05	11760	.297	.0000297
.6	581.55	12610	.23	.000023
.6	581.15	12870	.183	.0000183
.6	581.65	12430	.149	.0000149
.6	581.25	11470	.12	.000012
.6	581.65	9340	.08	.000008
.6	581.55	8240	.057	.0000057
.6	581.55	8190	.028	.0000028
.6	581.45	8110	.017	.0000017
.6	591.15	8270	.621	.0000621
.6	591.25	9110	.533	.0000533
.6	591.25	10250	.442	.0000442
.6	591.15	11380	.369	.0000369
.6	591.05	12110	.297	.0000297
.6	591.65	12810	.23	.000023
.6	591.05	12860	.183	.0000183
.6	591.85	12810	.149	.0000149
.6	591.25	12130	.12	.000012
.6	591.65	11060	.08	.000008
.6	591.85	10480	.057	.0000057
.6	591.75	9980	.028	.0000028
.6	591.85	9780	.017	.0000017
.6	600.65	9430	.621	.0000621
.6	600.85	10690	.533	.0000533
.6	600.85	11770	.442	.0000442
.6	600.85	12720	.369	.0000369
.6	600.75	13310	.297	.0000297
.6	601.55	13930	.23	.000023
.6	600.75	13830	.183	.0000183
.6	601.45	13920	.149	.0000149
.6	601.05	13530	.12	.000012
.6	601.45	12720	.08	.000008
.6	601.65	12230	.057	.0000057
.6	601.45	11720	.028	.0000028
.6	601.35	11180	.017	.0000017
.6	610.25	10580	.621	.0000621
.6	610.65	12130	.533	.0000533
.6	610.65	13360	.442	.0000442
.6	610.55	14280	.369	.0000369
.6	610.45	14750	.297	.0000297
.6	611.15	15310	.23	.000023
.6	610.75	15190	.183	.0000183
.6	611.35	15270	.149	.0000149
.6	610.85	14920	.12	.000012
.6	611.15	14190	.08	.000008
.6	611.35	13770	.057	.0000057
.6	611.25	13140	.028	.0000028
.6	611.05	12510	.017	.0000017
.6	621.85	11750	.621	.0000621
.6	622.25	13700	.533	.0000533
.6	622.25	15120	.442	.0000442
.6	622.05	16050	.369	.0000369
.6	621.95	16510	.297	.0000297
.6	622.85	16960	.23	.000023
.6	621.85	16750	.183	.0000183
.6	621.55	16670	.149	.0000149
.6	622.05	16470	.12	.000012
.6	621.45	15680	.08	.000008
.6	621.75	15200	.057	.0000057
.6	623.05	14420	.028	.0000028
.6	622.65	13610	.017	.0000017
