Measured thermophysical data. Measurements of activity coefficients at infinite dilution in vegetable oils and capric acid using the dilutor technique
Source: Fluid Phase Equilib., 2014, 10.1016/j.fluid.2013.10.035
Compound 1: methanol, CH4O, purity 99.8%
Compound 2: ethanol, C2H6O, purity 99.8%
Compound 3: acetone, C3H6O, purity 99.9%
Compound 4: n-hexane, C6H14, purity 99%
Compound 5: cyclohexane, C6H12, purity 99.8%
Compound 6: toluene, C7H8, purity 99.9%
Compound 7: capric acid, C10H20O2, purity 99%

System: methanol + capric acid; phases: Liquid, Gas
Fixed: Mole fraction of methanol = 0
Property: (Relative) activity of methanol (Liquid); method: Chromatography
Temperature, K	(Relative) activity of methanol	uncertainty
313.13	2.224	.0556

System: ethanol + capric acid; phases: Liquid, Gas
Fixed: Mole fraction of ethanol = 0
Property: (Relative) activity of ethanol (Liquid); method: Chromatography
Temperature, K	(Relative) activity of ethanol	uncertainty
313.13	2.196	.0549
318.11	2.025	.050625
328.15	1.704	.0426
333.14	1.757	.043925
338.13	1.611	.040275

System: acetone + capric acid; phases: Liquid, Gas
Fixed: Mole fraction of acetone = 0
Property: (Relative) activity of acetone (Liquid); method: Chromatography
Temperature, K	(Relative) activity of acetone	uncertainty
313.2	1.583	.039575
333.22	1.538	.03845
353.23	1.496	.0374

System: n-hexane + capric acid; phases: Liquid, Gas
Fixed: Mole fraction of n-hexane = 0
Property: (Relative) activity of n-hexane (Liquid); method: Chromatography
Temperature, K	(Relative) activity of n-hexane	uncertainty
313.17	1.918	.04795
318.19	1.915	.047875
328.21	1.759	.043975
338.11	1.692	.0423

System: cyclohexane + capric acid; phases: Liquid, Gas
Fixed: Mole fraction of cyclohexane = 0
Property: (Relative) activity of cyclohexane (Liquid); method: Chromatography
Temperature, K	(Relative) activity of cyclohexane	uncertainty
313.13	1.47	.03675
353.19	1.344	.0336

System: toluene + capric acid; phases: Liquid, Gas
Fixed: Mole fraction of toluene = 0
Property: (Relative) activity of toluene (Liquid); method: Chromatography
Temperature, K	(Relative) activity of toluene	uncertainty
333.11	1.162	.02905
