Measured thermophysical data. Solubility of osthole in a binary system of ethanol and water
Source: Fluid Phase Equilib., 2012, 10.1016/j.fluid.2012.04.005
Compound 1: 7-methoxy-8-(3-methylbut-2-en-1-yl)-2H-chromen-2-one, C15H16O3, purity 99.5%
Compound 2: water, H2O, purity 99.9%
Compound 3: ethanol, C2H6O, purity 99.9%

System: ethanol + 7-methoxy-8-(3-methylbut-2-en-1-yl)-2H-chromen-2-one + water; phases: Liquid, Crystal
Fixed: Pressure, kPa = 101
Property: Mole fraction of 7-methoxy-8-(3-methylbut-2-en-1-yl)-2H-chromen-2-one (Liquid); method: UV Spectroscopy
Temperature, K	Solvent: Mole fraction of ethanol	Mole fraction of 7-methoxy-8-(3-methylbut-2-en-1-yl)-2H-chromen-2-one	uncertainty
288.2	0	.000000445	.002
293.2	0	.000000486	.002
298.2	0	.000000539	.002
303.2	0	.000000648	.002
308.2	0	.000000711	.002
313.2	0	.000000871	.002
318.2	0	.000000937	.002
323.2	0	.00000114	.002
328.2	0	.000001347	.002
288.2	.0716	.0000023	.002
293.2	.0716	.00000259	.002
298.2	.0716	.00000388	.002
303.2	.0716	.00000508	.002
308.2	.0716	.00000662	.002
313.2	.0716	.00000956	.002
318.2	.0716	.0000119	.002
323.2	.0716	.00001377	.002
328.2	.0716	.00001448	.002
288.2	.1707	.00009	.002
293.2	.1707	.00012	.002
298.2	.1707	.00015	.002
303.2	.1707	.0002	.002
308.2	.1707	.00026	.002
313.2	.1707	.00037	.002
318.2	.1707	.00052	.002
323.2	.1707	.00085	.002
328.2	.1707	.00123	.002
288.2	.3166	.00102	.002
293.2	.3166	.00172	.002
298.2	.3166	.00267	.002
303.2	.3166	.0041	.002
308.2	.3166	.0062	.002
313.2	.3166	.00899	.002
318.2	.3166	.0129	.002
323.2	.3166	.01795	.002
328.2	.3166	.02461	.002
288.2	.4809	.00338	.002
293.2	.4809	.00414	.002
298.2	.4809	.00539	.002
303.2	.4809	.00683	.002
308.2	.4809	.00919	.002
313.2	.4809	.01266	.002
318.2	.4809	.01778	.002
323.2	.4809	.02553	.002
328.2	.4809	.03727	.002
288.2	.5527	.0095	.002
293.2	.5527	.01346	.002
298.2	.5527	.01951	.002
303.2	.5527	.02895	.002
308.2	.5527	.04357	.002
313.2	.5527	.0666	.002
318.2	.5527	.1036	.002
323.2	.5527	.16373	.002
328.2	.5527	.26187	.002
288.2	.6364	.00637	.002
293.2	.6364	.00794	.002
298.2	.6364	.01012	.002
303.2	.6364	.0135	.002
308.2	.6364	.01814	.002
313.2	.6364	.02488	.002
318.2	.6364	.03523	.002
323.2	.6364	.05077	.002
328.2	.6364	.07424	.002
288.2	1	.01236	.002
293.2	1	.01751	.002
298.2	1	.02466	.002
303.2	1	.03408	.002
308.2	1	.04609	.002
313.2	1	.06143	.002
318.2	1	.08052	.002
323.2	1	.10431	.002
328.2	1	.13341	.002
