Measured thermophysical data. Isobaric vapor-liquid equilibrium for water + acetic acid + 1-butyl-3-methylimidazolium dibutylphosphate at 101.32 kPa
Source: Fluid Phase Equilib., 2014, 10.1016/j.fluid.2013.11.036
Compound 1: 1-butyl-3-methylimidazolium dibutylphosphate, C16H33N2O4P, purity 99%
Compound 2: acetic acid, C2H4O2, purity 99.8%
Compound 3: water, H2O, purity 99.9%

System: acetic acid; phases: Liquid, Gas
Property: Normal boiling temperature, K (Liquid); method: Ebulliometric method (Recirculating still)
Normal boiling temperature, K	uncertainty
391.03	.01

System: acetic acid; phases: Liquid
Fixed: Pressure, kPa = 101.325
Property: Mass density, kg/m3 (Liquid); method: Vibrating tube method
Temperature, K	Mass density, kg/m3	uncertainty
298.15	1042.5	.1

System: water; phases: Liquid, Gas
Property: Normal boiling temperature, K (Liquid); method: Ebulliometric method (Recirculating still)
Normal boiling temperature, K	uncertainty
373.15	.01

System: water; phases: Liquid
Fixed: Pressure, kPa = 101.325
Property: Mass density, kg/m3 (Liquid); method: Vibrating tube method
Temperature, K	Mass density, kg/m3	uncertainty
298.15	997.8	.1

System: acetic acid + water; phases: Liquid, Gas
Property: Boiling temperature at pressure P, K (Liquid); method: Ebulliometric method (Recirculating still)
Mole fraction of water	Pressure, kPa	Boiling temperature at pressure P, K	uncertainty
0	101.32	391.03	.01
.141	101.32	385.52	.01
.303	101.32	380.97	.01
.452	101.32	378.12	.01
.609	101.32	376.19	.01
.695	101.32	375.34	.01
.81	101.32	374.21	.01
.9	101.32	373.65	.01
1	101.32	373.15	.01

System: acetic acid + water; phases: Gas, Liquid
Property: Mole fraction of water (Gas); method: Chromatography
Mole fraction of water	Pressure, kPa	Mole fraction of water	uncertainty
0	101.32	0	.001
.141	101.32	.24	.001
.303	101.32	.454	.001
.452	101.32	.608	.001
.609	101.32	.732	.001
.695	101.32	.797	.001
.81	101.32	.877	.001
.9	101.32	.935	.001
1	101.32	1	.001

System: water + 1-butyl-3-methylimidazolium dibutylphosphate; phases: Liquid, Gas
Fixed: Pressure, kPa = 101.32
Property: Boiling temperature at pressure P, K (Liquid); method: Ebulliometric method (Recirculating still)
Mole fraction of 1-butyl-3-methylimidazolium dibutylphosphate	Boiling temperature at pressure P, K	uncertainty
0	373.15	.01
.003	373.23	.01
.007	373.34	.01
.011	373.47	.01
.015	373.59	.01
.021	373.76	.01
.028	373.96	.01
.036	374.21	.01
.046	374.52	.01
.062	375.07	.01
.07	375.46	.01
.08	376.12	.01
.096	377.14	.01
.139	380.81	.01
.172	384.59	.01
.215	392.05	.01
.299	411.87	.01

System: water + 1-butyl-3-methylimidazolium dibutylphosphate; phases: Liquid, Gas
Property: Boiling temperature at pressure P, K (Liquid); method: Ebulliometric method (Recirculating still)
Pressure, kPa	Mole fraction of water	Boiling temperature at pressure P, K	uncertainty
101.32	.959	374.48	.01
101.32	.991	373.41	.01
101.32	.978	373.78	.01

System: acetic acid + 1-butyl-3-methylimidazolium dibutylphosphate; phases: Liquid, Gas
Fixed: Pressure, kPa = 101.32
Property: Boiling temperature at pressure P, K (Liquid); method: Ebulliometric method (Recirculating still)
Mole fraction of 1-butyl-3-methylimidazolium dibutylphosphate	Boiling temperature at pressure P, K	uncertainty
0	391.03	.01
.021	392.34	.01
.051	394.8	.01
.081	398.06	.01
.11	401.75	.01
.141	407.57	.01
.168	412.07	.01
.197	417.18	.01

System: acetic acid + 1-butyl-3-methylimidazolium dibutylphosphate; phases: Liquid, Gas
Property: Boiling temperature at pressure P, K (Liquid); method: Ebulliometric method (Recirculating still)
Mole fraction of acetic acid	Pressure, kPa	Boiling temperature at pressure P, K	uncertainty
.931	101.32	397.15	.01
.97	101.32	393.15	.01
.875	101.32	403.9	.01

System: acetic acid + water + 1-butyl-3-methylimidazolium dibutylphosphate; phases: Liquid, Gas
Property: Mole fraction of acetic acid (Liquid); method: Chromatography
Property: Mole fraction of water (Gas); method: Chromatography
Property: Mole fraction of acetic acid (Gas); method: Chromatography
Temperature, K	Pressure, kPa	Mole fraction of water	Mole fraction of acetic acid	uncertainty	Mole fraction of water	uncertainty	Mole fraction of acetic acid	uncertainty
374.48	101.32	.959	0	.001	1	.001	0	.001
375.03	101.32	.797	.173	.001	.935	.001	.065	.001
375.57	101.32	.744	.223	.001	.91	.001	.09	.001
374.59	101.32	.918	.037	.001	.996	.001	.004	.001
376.29	101.32	.657	.306	.001	.865	.001	.135	.001
377.39	101.32	.562	.396	.001	.806	.001	.194	.001
379.03	101.32	.436	.516	.001	.706	.001	.294	.001
383.05	101.32	.266	.678	.001	.522	.001	.478	.001
389.09	101.32	.112	.824	.001	.281	.001	.719	.001
391.84	101.32	.064	.87	.001	.175	.001	.825	.001
394.12	101.32	.032	.9	.001	.1	.001	.9	.001
385.54	101.32	.227	.667	.001	.583	.001	.417	.001
397.15	101.32	0	.931	.001	0	.001	1	.001
373.41	101.32	.991	0	.001	1	.001	0	.001
374.09	101.32	.891	.098	.001	.954	.001	.046	.001
374.84	101.32	.868	.083	.001	.986	.001	.014	.001
374.72	101.32	.792	.195	.001	.9	.001	.1	.001
376.95	101.32	.59	.393	.001	.756	.001	.244	.001
379.87	101.32	.392	.586	.001	.579	.001	.421	.001
384.45	101.32	.197	.777	.001	.356	.001	.644	.001
387.51	101.32	.107	.866	.001	.222	.001	.778	.001
390.19	101.32	.047	.924	.001	.108	.001	.892	.001
392.06	101.32	.11	.775	.001	.377	.001	.623	.001
393.15	101.32	0	.97	.001	0	.001	1	.001
374.95	101.32	.832	.116	.001	.977	.001	.023	.001
375.36	101.32	.776	.167	.001	.958	.001	.042	.001
375.95	101.32	.714	.224	.001	.931	.001	.069	.001
378.05	101.32	.525	.396	.001	.847	.001	.153	.001
380.23	101.32	.403	.507	.001	.76	.001	.24	.001
382.28	101.32	.319	.584	.001	.685	.001	.315	.001
398.04	101.32	.04	.838	.001	.18	.001	.82	.001
403.9	101.32	0	.875	.001	0	.001	1	.001
373.78	101.32	.978	0	.001	1	.001	0	.001
374.15	101.32	.908	.067	.001	.982	.001	.018	.001
374.42	101.32	.876	.097	.001	.971	.001	.029	.001
374.6	101.32	.862	.111	.001	.963	.001	.037	.001
