Measured thermophysical data. Influence of temperature on the (liquid + liquid) equilibria of  {methanol + benzene + hexane} ternary system
Source: Fluid Phase Equilib., 2011, 10.1016/j.fluid.2011.02.022
Compound 1: methanol, CH4O, purity 99.8%
Compound 2: benzene, C6H6, purity 99.8%
Compound 3: hexane, C6H14, purity 99.8%

System: methanol + benzene + hexane; phases: Liquid mixture 1, Liquid mixture 2
Fixed: Pressure, kPa = 101
Property: Mass fraction of benzene (Liquid mixture 1); method: Chromatography
Property: Mass fraction of methanol (Liquid mixture 2); method: Chromatography
Property: Mass fraction of benzene (Liquid mixture 2); method: Chromatography
Temperature, K	Mass fraction of methanol	Mass fraction of benzene	uncertainty	Mass fraction of methanol	uncertainty	Mass fraction of benzene	uncertainty
278.15	.739	0	.001	.054	.001	0	.001
283.15	.672	.024	.001	.076	.001	.026	.001
283.15	.631	.044	.001	.088	.001	.046	.001
283.15	.602	.058	.001	.11	.001	.075	.001
283.15	.54	.084	.001	.128	.001	.092	.001
283.15	.5	.1	.001	.15	.001	.109	.001
293.15	.661	0	.001	.084	.001	0	.001
293.15	.607	.024	.001	.101	.001	.026	.001
293.15	.546	.045	.001	.117	.001	.05	.001
293.15	.489	.065	.001	.191	.001	.079	.001
278.15	.703	.027	.001	.05	.001	.021	.001
278.15	.659	.055	.001	.058	.001	.04	.001
278.15	.615	.07	.001	.067	.001	.065	.001
278.15	.587	.085	.001	.093	.001	.091	.001
278.15	.543	.106	.001	.108	.001	.104	.001
278.15	.482	.128	.001	.129	.001	.126	.001
278.15	.373	.149	.001	.202	.001	.153	.001
283.15	.7	0	.001	.063	.001	0	.001

System: methanol + hexane; phases: Liquid mixture 1, Liquid mixture 2
Property: Mass fraction of methanol (Liquid mixture 1); method: Chromatography
Temperature, K	Pressure, kPa	Mass fraction of methanol	uncertainty
278.15	101	.739	.001
283.15	101	.7	.001
293.15	101	.661	.001

System: methanol + hexane; phases: Liquid mixture 2, Liquid mixture 1
Property: Mass fraction of methanol (Liquid mixture 2); method: Chromatography
Temperature, K	Pressure, kPa	Mass fraction of methanol	uncertainty
278.15	101	.054	.001
283.15	101	.063	.001
293.15	101	.084	.001
