Measured thermophysical data. Vapor-liquid equilibrium measurement of1,1,1,3,3-pentafluoropropane + N,N-dimethylformamide/diethyleneglycol dimethyl ether/N-methyl-2-pyrrolidone working fluids forabsorption power cycle
Source: Fluid Phase Equilib., 2014, 10.1016/j.fluid.2014.01.007
Compound 1: 1,1,1,3,3-pentafluoropropane, C3H3F5, purity 99.5%
Compound 2: dimethylformamide, C3H7NO, purity 99.9%
Compound 3: .beta.,.beta.'-dimethoxy diethyl ether, C6H14O3, purity 99.5%
Compound 4: N-methyl-2-pyrrolidinone, C5H9NO, purity 99%

System: dimethylformamide + 1,1,1,3,3-pentafluoropropane; phases: Liquid, Gas
Property: Vapor or sublimation pressure, kPa (Liquid); method: Closed cell (Static) method
Temperature, K	Mole fraction of 1,1,1,3,3-pentafluoropropane	Vapor or sublimation pressure, kPa	uncertainty
293.15	.20032	14.7	.3
293.15	.29344	22.3	.3
293.15	.37145	29.8	.3
293.15	.44314	36.7	.3
293.15	.51422	43.1	.3
293.15	.64178	57.4	.3
293.15	.72531	72.4	.3
293.15	.80042	86.1	.3
303.15	.2135	21.9	.3
303.15	.36791	39	.3
303.15	.46118	53.5	.3
303.15	.51238	61.5	.3
303.15	.57409	70.5	.3
303.15	.60646	74.4	.3
303.15	.67923	92.1	.3
303.15	.74604	102.7	.3
303.15	.81383	125.1	.3
313.15	.24228	34.5	.3
313.15	.3122	46.3	.3
313.15	.50011	77.2	.3
313.15	.56863	96.1	.3
313.15	.63023	110.5	.3
313.15	.69542	125	.3
313.15	.74792	141	.3
313.15	.82088	172	.3
323.15	.20111	36.5	.3
323.15	.35548	69.9	.3
323.15	.39346	79.6	.3
323.15	.56049	121.1	.3
323.15	.58957	134.2	.3
323.15	.65859	153.3	.3
323.15	.72841	183.8	.3
323.15	.78319	204.5	.3
323.15	.81878	229.3	.3
333.15	.20032	46.444	.3
333.15	.33206	82.57	.3
333.15	.3778	96.546	.3
333.15	.5412	153.672	.3
333.15	.61238	183.259	.3
333.15	.68797	219.434	.3
333.15	.74537	251.487	.3
333.15	.80801	292.837	.3
333.15	.84853	324.232	.3
343.15	.23221	69.465	.3
343.15	.35466	114.275	.3
343.15	.39432	130.321	.3
343.15	.47647	166.193	.3
343.15	.53608	194.833	.3
343.15	.63805	250.736	.3
343.15	.72509	308.743	.3
343.15	.78155	354.212	.3
343.15	.82483	394.997	.3
353.15	.21322	79.356	.3
353.15	.32111	127.749	.3
353.15	.43031	184.113	.3
353.15	.54332	251.395	.3
353.15	.64221	321.003	.3
353.15	.71951	386.48	.3
353.15	.76056	427.145	.3
353.15	.78263	451.239	.3
353.15	.82751	506.247	.3

System: .beta.,.beta.'-dimethoxy diethyl ether + 1,1,1,3,3-pentafluoropropane; phases: Liquid, Gas
Property: Vapor or sublimation pressure, kPa (Liquid); method: Closed cell (Static) method
Temperature, K	Mole fraction of 1,1,1,3,3-pentafluoropropane	Vapor or sublimation pressure, kPa	uncertainty
293.15	.17332	11.3	.3
293.15	.34254	25.9	.3
293.15	.47492	39.7	.3
293.15	.57022	52.1	.3
293.15	.61626	58.2	.3
293.15	.71047	71.8	.3
293.15	.76816	80.5	.3
293.15	.81554	91.6	.3
293.15	.89872	108.3	.3
303.15	.28332	26.8	.3
303.15	.39348	43.9	.3
303.15	.46353	53.3	.3
303.15	.60632	81.4	.3
303.15	.6669	92.9	.3
303.15	.73165	106.4	.3
303.15	.85095	134.8	.3
303.15	.89887	148.4	.3
313.15	.21221	27.5	.3
313.15	.40306	59.9	.3
313.15	.48243	76.5	.3
313.15	.57517	96.4	.3
313.15	.64033	116.6	.3
313.15	.70304	134.5	.3
313.15	.77206	156.3	.3
313.15	.84467	184.8	.3
313.15	.9166	210	.3
323.15	.15453	26.1	.3
323.15	.26554	47.9	.3
323.15	.35444	68.3	.3
323.15	.42668	87.5	.3
323.15	.55892	124.4	.3
323.15	.66794	170.6	.3
323.15	.75589	214.9	.3
323.15	.84332	250.1	.3
333.15	.14332	31.5	.3
333.15	.29461	70.5	.3
333.15	.39573	100	.3
333.15	.47173	130.9	.3
333.15	.56574	170.4	.3
333.15	.70112	239.5	.3
333.15	.75916	270.2	.3
333.15	.81964	322.1	.3
333.15	.88308	368.4	.3
343.15	.19412	58.4	.3
343.15	.33526	106.8	.3
343.15	.45176	160.5	.3
343.15	.50589	192.3	.3
343.15	.65161	263.3	.3
343.15	.72653	323.5	.3
343.15	.7889	390.3	.3
343.15	.85446	444.5	.3
353.15	.15332	57.5	.3
353.15	.36005	148.7	.3
353.15	.41351	173.9	.3
353.15	.4586	204.8	.3
353.15	.58038	285.9	.3
353.15	.67949	380.1	.3
353.15	.73506	440.7	.3
353.15	.82115	520.6	.3
353.15	.8983	640.8	.3

System: 1,1,1,3,3-pentafluoropropane + N-methyl-2-pyrrolidinone; phases: Liquid, Gas
Property: Vapor or sublimation pressure, kPa (Liquid); method: Closed cell (Static) method
Temperature, K	Mole fraction of 1,1,1,3,3-pentafluoropropane	Vapor or sublimation pressure, kPa	uncertainty
293.15	.21888	19.7	.3
293.15	.37089	35.3	.3
293.15	.49919	49.4	.3
293.15	.54723	53.6	.3
293.15	.58959	58.8	.3
293.15	.65	67.6	.3
293.15	.70263	76.9	.3
293.15	.85629	96.3	.3
303.15	.25453	32.4	.3
303.15	.3565	45.9	.3
303.15	.45001	61.8	.3
303.15	.5463	76.3	.3
303.15	.60394	85.3	.3
303.15	.65861	97.5	.3
303.15	.71999	108.3	.3
303.15	.77522	126.8	.3
313.15	.26925	45.8	.3
313.15	.36987	66.3	.3
313.15	.44446	80.4	.3
313.15	.53573	99.5	.3
313.15	.5958	118.3	.3
313.15	.67427	141	.3
313.15	.76666	170.1	.3
313.15	.84177	196.4	.3
323.15	.20937	47.2	.3
323.15	.35699	84.6	.3
323.15	.45551	111.1	.3
323.15	.54505	135.9	.3
323.15	.607	156.4	.3
323.15	.69816	199.7	.3
323.15	.76983	226.6	.3
323.15	.8026	233.9	.3
333.15	.20848	61.9	.3
333.15	.33363	101.7	.3
333.15	.46781	146.9	.3
333.15	.54759	183.2	.3
333.15	.59591	208	.3
333.15	.68778	250.9	.3
333.15	.78133	309.7	.3
333.15	.87199	354.3	.3
343.15	.22786	88.4	.3
343.15	.35609	140.9	.3
343.15	.43407	179.5	.3
343.15	.49452	208.8	.3
343.15	.59009	266.7	.3
343.15	.67704	313.4	.3
343.15	.76047	360.5	.3
343.15	.805	398.6	.3
353.15	.21259	103.7	.3
353.15	.32623	160.2	.3
353.15	.43086	225.5	.3
353.15	.54109	292.4	.3
353.15	.60874	350.6	.3
353.15	.68215	404.7	.3
353.15	.75614	460.4	.3
353.15	.79041	500.5	.3
