Measured thermophysical data. High pressure phase equilibrium of carbon dioxide and benzaldehyde binary system
Source: Fluid Phase Equilib., 2012, 10.1016/j.fluid.2012.04.007
Compound 1: carbon dioxide, CO2, purity 99.995%
Compound 2: benzaldehyde, C7H6O, purity 99%
Compound 3: ethanol, C2H6O, purity 99.7%

System: benzaldehyde + carbon dioxide; phases: Liquid, Gas
Property: Vapor or sublimation pressure, kPa (Liquid); method: Closed cell (Static) method
Temperature, K	Mole fraction of carbon dioxide	Vapor or sublimation pressure, kPa	uncertainty
298.55	.284	2690	25
298.55	.3688	3330	25
298.55	.449	3990	25
298.55	.5215	4620	25
298.55	.6218	5180	25
298.55	.757	5590	25
298.55	.8047	5700	25
310.05	.2472	2720	25
310.05	.2866	3220	25
310.05	.3705	4070	25
310.05	.5658	5990	25
310.05	.6741	6860	25
310.05	.7848	7300	25
310.05	.8838	7590	25
321.75	.2213	3030	25
321.75	.3273	4720	25
321.75	.4214	5690	25
321.75	.5183	6970	25
321.75	.6003	7960	25
321.75	.7189	8950	25
321.75	.8055	9420	25
321.75	.9076	9560	25
335.3	.1434	2200	25
335.3	.2578	4090	25
335.3	.3792	6030	25
335.3	.4141	6930	25
335.3	.5722	9120	25
335.3	.709	11300	25
335.3	.7877	11890	25
335.3	.8521	12720	25
345.15	.1597	2980	25
345.15	.3155	5930	25
345.15	.4687	9060	25
345.15	.5947	11360	25
345.15	.7255	13380	25
345.15	.7535	14170	25

System: benzaldehyde + carbon dioxide; phases: Gas, Liquid
Property: Vapor or sublimation pressure, kPa (Gas); method: Closed cell (Static) method
Temperature, K	Mole fraction of benzaldehyde	Vapor or sublimation pressure, kPa	uncertainty
298.55	.00015	2690	25
298.55	.000121	3330	25
298.55	.000146	3990	25
298.55	.000128	4620	25
298.55	.00016	5180	25
298.55	.000284	5590	25
298.55	.000324	5700	25
310.05	.000132	2720	25
310.05	.000128	3220	25
310.05	.000153	4070	25
310.05	.000197	5990	25
310.05	.000485	6700	25
310.05	.000459	7300	25
310.05	.000838	7590	25
321.75	.000278	3030	25
321.75	.000257	4720	25
321.75	.000236	5690	25
321.75	.000321	6970	25
321.75	.000732	7960	25
321.75	.0017	8950	25
321.75	.00224	9420	25
321.75	.00424	9560	25
335.3	.000641	2200	25
335.3	.00075	4090	25
335.3	.000475	6030	25
335.3	.000483	6930	25
335.3	.000707	9120	25
335.3	.00404	11300	25
335.3	.00936	11890	25
335.3	.0289	12720	25
345.15	.000745	2980	25
345.15	.000947	5930	25
345.15	.001922	9060	25
345.15	.00408	11360	25
345.15	.0118	13380	25
345.15	.0236	14170	25

System: benzaldehyde + carbon dioxide; phases: Liquid, Gas
Property: Critical pressure, kPa (Liquid); method: Direct measurement
Mole fraction of carbon dioxide	Critical pressure, kPa	uncertainty
.8476	14960	25
