Measured thermophysical data. Liquid-liquid equilibrium and interfacial tension of the ternary system heptane + thiophene + 1-ethyl-3-methylimidazolium bis(trifluoromethanesulfonyl)imide
Source: Fluid Phase Equilib., 2010, 10.1016/j.fluid.2010.08.008
Compound 1: heptane, C7H16
Compound 2: thiophene, C4H4S
Compound 3: 1-ethyl-3-methylimidazolium bis[(trifluoromethyl)sulfonyl]imide, C8H11F6N3O4S2, purity 98%

System: thiophene + heptane + 1-ethyl-3-methylimidazolium bis[(trifluoromethyl)sulfonyl]imide; phases: Liquid mixture 2, Liquid mixture 1
Fixed: Pressure, kPa = 101
Fixed: Temperature, K = 298.15
Property: Mole fraction of heptane (Liquid mixture 2); method: Chromatography
Mole fraction of heptane	Mole fraction of heptane	uncertainty
1	.023	.005
.952	.025	.005
.875	.024	.005
.795	.026	.005
.713	.025	.005
.625	.028	.005
.522	.029	.005
.415	.029	.005
.282	.029	.005
.183	.026	.005
.082	.018	.005
0	0	.005

System: thiophene + heptane + 1-ethyl-3-methylimidazolium bis[(trifluoromethyl)sulfonyl]imide; phases: Liquid mixture 2, Liquid mixture 1
Fixed: Pressure, kPa = 101
Fixed: Temperature, K = 298.15
Property: Mole fraction of thiophene (Liquid mixture 2); method: Chromatography
Mole fraction of thiophene	Mole fraction of thiophene	uncertainty
0	0	.005
.048	.094	.005
.125	.213	.005
.205	.317	.005
.287	.381	.005
.375	.428	.005
.478	.495	.005
.585	.557	.005
.718	.638	.005
.817	.681	.005
.918	.726	.005
1	.776	.005

System: thiophene + heptane + 1-ethyl-3-methylimidazolium bis[(trifluoromethyl)sulfonyl]imide; phases: Liquid mixture 1, Liquid mixture 2
Fixed: Temperature, K = 298.15
Fixed: Pressure, kPa = 101
Property: Interfacial tension, N/m (Liquid mixture 1); method: Wilhelmy Plate
Mole fraction of heptane	Interfacial tension, N/m	uncertainty
1	.0122	.0003
.952	.011	.0003
.875	.0102	.0003
.795	.0088	.0003
.713	.0073	.0003
.625	.0062	.0003
.522	.0053	.0003
.415	.0041	.0003
.282	.0031	.0003
.183	.0026	.0003
.082	.0016	.0003
0	.0013	.0003
