Measured thermophysical data. A modified continuous flow apparatus for gas solubility measurements at high pressure and temperature with camera system
Source: Fluid Phase Equilib., 2014, 10.1016/j.fluid.2014.08.035
Compound 1: hydrogen, H2, purity 99.995%
Compound 2: toluene, C7H8, purity 99.7%
Compound 3: n-hexadecane, C16H34, purity 99%
Compound 4: n-octadecane, C18H38, purity 99%

System: toluene + hydrogen; phases: Liquid, Gas
Property: Mole fraction of hydrogen (Liquid); method: Phase equilibration
Temperature, K	Pressure, kPa	Mole fraction of hydrogen	uncertainty
501.6	5000	.037	.002
501.4	7490	.062	.003
501.4	9980	.084	.004
502	4990	.037	.002
501.8	7980	.067	.003
501.8	9970	.086	.004
542.2	5970	.049	.003
541.8	7980	.075	.004
541.7	9970	.1	.005
573.5	5990	.051	.003
573.5	7490	.08	.004
573.4	9980	.126	.006
574.6	5990	.051	.003
574.6	7980	.09	.004
575	9980	.129	.006

System: n-hexadecane + hydrogen; phases: Liquid, Gas
Property: Mole fraction of hydrogen (Liquid); method: Phase equilibration
Temperature, K	Pressure, kPa	Mole fraction of hydrogen	uncertainty
461.4	4990	.072	.004
461.4	7480	.106	.005
461.3	9970	.136	.006
501.2	4990	.087	.004
501.2	7480	.125	.006
501	9970	.157	.007
540.7	4980	.096	.005
540.4	7480	.139	.007
540.4	9970	.18	.008
542.4	5000	.098	.005
542.2	7490	.139	.007
542.2	9950	.18	.008
573.3	5000	.107	.005
573.1	7490	.157	.007
573.1	9970	.203	.009

System: n-octadecane + hydrogen; phases: Liquid, Gas
Property: Mole fraction of hydrogen (Liquid); method: Phase equilibration
Temperature, K	Pressure, kPa	Mole fraction of hydrogen	uncertainty
462	7490	.107	.005
461.9	9970	.143	.007
501	5000	.087	.004
500.9	7490	.124	.006
500.7	9970	.161	.008
540.6	5000	.1	.005
540.2	7480	.143	.007
540.3	9970	.184	.009
