Measured thermophysical data. The effect of the cation aromaticity upon the thermophysical properties of piperidinium- and pyridinium-based Ionic Liquids
Source: Fluid Phase Equilib., 2014, 10.1016/j.fluid.2014.04.029
Compound 1: 1-methyl-1-propylpiperidinium bis(trifluoromethylsulfonyl)imide, C11H20F6N2O4S2, purity 99%
Compound 2: 1-butyl-1-methylpiperidinium bis(trifluoromethylsulfonyl)imide, C12H22F6N2O4S2, purity 99%
Compound 3: 3-methyl-1-propylpyridinium bis(trifluoromethylsulfonyl)imide, C11H14F6N2O4S2, purity 99%
Compound 4: 1-butyl-3-methylpyridinium bis(trifluoromethylsulfonyl)imide, C12H16F6N2O4S2, purity 99%

System: 1-methyl-1-propylpiperidinium bis(trifluoromethylsulfonyl)imide; phases: Liquid
Fixed: Pressure, kPa = 101.325
Property: Mass density, kg/m3 (Liquid); method: Vibrating tube method
Temperature, K	Mass density, kg/m3	uncertainty
288.15	1420.3	.5
293.15	1415.8	.5
298.15	1411.4	.5
303.15	1407	.5
308.15	1402.6	.5
313.15	1398.2	.5
318.15	1393.9	.5
323.15	1389.6	.5
328.15	1385.3	.5
333.15	1381	.5
338.15	1376.7	.5
343.15	1372.5	.5
348.15	1368.3	.5
353.15	1364.1	.5

System: 1-methyl-1-propylpiperidinium bis(trifluoromethylsulfonyl)imide; phases: Liquid
Fixed: Pressure, kPa = 101.325
Property: Viscosity, Pa*s (Liquid); method: Capillary tube (Ostwald; Ubbelohde) method
Temperature, K	Viscosity, Pa*s	uncertainty
288.15	.274	.00274
293.15	.1981	.001981
298.15	.1456	.001456
303.15	.1104	.001104
308.15	.0856	.000856
313.15	.0679	.000679
318.15	.0544	.000544
323.15	.0445	.000445
328.15	.0369	.000369
333.15	.031	.00031
338.15	.0262	.000262
343.15	.0225	.000225
348.15	.0195	.000195
353.15	.017	.00017

System: 1-methyl-1-propylpiperidinium bis(trifluoromethylsulfonyl)imide; phases: Liquid
Fixed: Pressure, kPa = 101.325
Property: Refractive index (Na D-line) (Liquid); method: Standard Abbe refractometry
Temperature, K	Refractive index (Na D-line)	uncertainty
288.15	1.43004	.00002
293.15	1.42865	.00002
298.15	1.42739	.00002
303.15	1.42586	.00002
308.15	1.42444	.00002
313.15	1.42304	.00002
318.15	1.42165	.00002
323.15	1.42027	.00002
328.15	1.41894	.00002
333.15	1.41758	.00002
338.15	1.41624	.00002
343.15	1.41489	.00002
348.15	1.41357	.00002
353.15	1.41227	.00002

System: 1-methyl-1-propylpiperidinium bis(trifluoromethylsulfonyl)imide; phases: Liquid, Air at 1 atmosphere
Property: Surface tension liquid-gas, N/m (Liquid); method: Pendant drop shape
Temperature, K	Surface tension liquid-gas, N/m	uncertainty
293.4	.0356	.0005
298	.0353	.0005
303.1	.0351	.0005
313.2	.0345	.0005
323.2	.034	.0005
333.3	.0335	.0005
343.3	.033	.0005

System: 1-butyl-1-methylpiperidinium bis(trifluoromethylsulfonyl)imide; phases: Liquid
Fixed: Pressure, kPa = 101.325
Property: Mass density, kg/m3 (Liquid); method: Vibrating tube method
Temperature, K	Mass density, kg/m3	uncertainty
288.15	1389.7	.5
293.15	1385.2	.5
298.15	1380.8	.5
303.15	1376.5	.5
308.15	1372.2	.5
313.15	1367.9	.5
318.15	1363.6	.5
323.15	1359.4	.5
328.15	1355.2	.5
333.15	1351	.5
338.15	1346.8	.5
343.15	1342.7	.5
348.15	1338.6	.5
353.15	1334.5	.5

System: 1-butyl-1-methylpiperidinium bis(trifluoromethylsulfonyl)imide; phases: Liquid
Fixed: Pressure, kPa = 101.325
Property: Viscosity, Pa*s (Liquid); method: Capillary tube (Ostwald; Ubbelohde) method
Temperature, K	Viscosity, Pa*s	uncertainty
288.15	.3449	.003449
293.15	.2477	.002477
298.15	.1802	.001802
303.15	.1354	.001354
308.15	.104	.00104
313.15	.0817	.000817
318.15	.0649	.000649
323.15	.0525	.000525
328.15	.0432	.000432
333.15	.036	.00036
338.15	.0302	.000302
343.15	.0257	.000257
348.15	.0221	.000221
353.15	.0192	.000192

System: 1-butyl-1-methylpiperidinium bis(trifluoromethylsulfonyl)imide; phases: Liquid
Fixed: Pressure, kPa = 101.325
Property: Refractive index (Na D-line) (Liquid); method: Standard Abbe refractometry
Temperature, K	Refractive index (Na D-line)	uncertainty
288.15	1.43208	.00002
293.15	1.43066	.00002
298.15	1.42928	.00002
303.15	1.42784	.00002
308.15	1.42646	.00002
313.15	1.42505	.00002
318.15	1.42366	.00002
323.15	1.42231	.00002
328.15	1.42091	.00002
333.15	1.41957	.00002
338.15	1.41825	.00002
343.15	1.4169	.00002
348.15	1.41558	.00002
353.15	1.41423	.00002

System: 1-butyl-1-methylpiperidinium bis(trifluoromethylsulfonyl)imide; phases: Liquid, Air at 1 atmosphere
Property: Surface tension liquid-gas, N/m (Liquid); method: Pendant drop shape
Temperature, K	Surface tension liquid-gas, N/m	uncertainty
293.3	.0345	.0005
298.2	.0342	.0005
302.9	.034	.0005
313.2	.0335	.0005
323.2	.033	.0005
333	.0325	.0005
343.1	.0321	.0005

System: 3-methyl-1-propylpyridinium bis(trifluoromethylsulfonyl)imide; phases: Liquid
Fixed: Pressure, kPa = 101.325
Property: Mass density, kg/m3 (Liquid); method: Vibrating tube method
Temperature, K	Mass density, kg/m3	uncertainty
288.15	1458.4	.5
293.15	1453.6	.5
298.15	1448.8	.5
303.15	1444.1	.5
308.15	1439.3	.5
313.15	1434.6	.5
318.15	1430	.5
323.15	1425.3	.5
328.15	1420.7	.5
333.15	1416.1	.5
338.15	1411.5	.5
343.15	1407	.5
348.15	1402.5	.5
353.15	1398	.5

System: 3-methyl-1-propylpyridinium bis(trifluoromethylsulfonyl)imide; phases: Liquid
Fixed: Pressure, kPa = 101.325
Property: Viscosity, Pa*s (Liquid); method: Capillary tube (Ostwald; Ubbelohde) method
Temperature, K	Viscosity, Pa*s	uncertainty
288.15	.0889	.000889
293.15	.0687	.000687
298.15	.0543	.000543
303.15	.0437	.000437
308.15	.0357	.000357
313.15	.0296	.000296
318.15	.025	.00025
323.15	.0212	.000212
328.15	.0183	.000183
333.15	.0159	.000159
338.15	.0139	.000139
343.15	.0122	.000122
348.15	.0109	.000109
353.15	.0097	.000097

System: 3-methyl-1-propylpyridinium bis(trifluoromethylsulfonyl)imide; phases: Liquid
Fixed: Pressure, kPa = 101.325
Property: Refractive index (Na D-line) (Liquid); method: Standard Abbe refractometry
Temperature, K	Refractive index (Na D-line)	uncertainty
288.15	1.44734	.00002
293.15	1.44581	.00002
298.15	1.4444	.00002
303.15	1.44279	.00002
308.15	1.44129	.00002
313.15	1.43983	.00002
318.15	1.43836	.00002
323.15	1.43693	.00002
328.15	1.43546	.00002
333.15	1.43405	.00002
338.15	1.43266	.00002
343.15	1.4312	.00002
348.15	1.42977	.00002
353.15	1.42839	.00002

System: 3-methyl-1-propylpyridinium bis(trifluoromethylsulfonyl)imide; phases: Liquid, Air at 1 atmosphere
Property: Surface tension liquid-gas, N/m (Liquid); method: Pendant drop shape
Temperature, K	Surface tension liquid-gas, N/m	uncertainty
293.3	.035	.0005
298.3	.0347	.0005
303.3	.0345	.0005
313.2	.0339	.0005
323.2	.0334	.0005
333.1	.033	.0005
343.2	.0325	.0005

System: 1-butyl-3-methylpyridinium bis(trifluoromethylsulfonyl)imide; phases: Liquid
Fixed: Pressure, kPa = 101.325
Property: Mass density, kg/m3 (Liquid); method: Vibrating tube method
Temperature, K	Mass density, kg/m3	uncertainty
288.15	1424.2	.5
293.15	1419.6	.5
298.15	1414.9	.5
303.15	1410.3	.5
308.15	1405.7	.5
313.15	1401.1	.5
318.15	1396.6	.5
323.15	1392.1	.5
328.15	1387.6	.5
333.15	1383.1	.5
338.15	1378.7	.5
343.15	1374.3	.5
348.15	1369.9	.5
353.15	1365.5	.5

System: 1-butyl-3-methylpyridinium bis(trifluoromethylsulfonyl)imide; phases: Liquid
Fixed: Pressure, kPa = 101.325
Property: Viscosity, Pa*s (Liquid); method: Capillary tube (Ostwald; Ubbelohde) method
Temperature, K	Viscosity, Pa*s	uncertainty
288.15	.1078	.001078
293.15	.0827	.000827
298.15	.0647	.000647
303.15	.0517	.000517
308.15	.042	.00042
313.15	.0346	.000346
318.15	.0289	.000289
323.15	.0244	.000244
328.15	.0208	.000208
333.15	.0179	.000179
338.15	.0155	.000155
343.15	.0136	.000136
348.15	.012	.00012
353.15	.0107	.000107

System: 1-butyl-3-methylpyridinium bis(trifluoromethylsulfonyl)imide; phases: Liquid
Fixed: Pressure, kPa = 101.325
Property: Refractive index (Na D-line) (Liquid); method: Standard Abbe refractometry
Temperature, K	Refractive index (Na D-line)	uncertainty
288.15	1.44845	.00002
293.15	1.44694	.00002
298.15	1.44566	.00002
303.15	1.44397	.00002
308.15	1.44249	.00002
313.15	1.44103	.00002
318.15	1.43955	.00002
323.15	1.4381	.00002
328.15	1.43668	.00002
333.15	1.43524	.00002
338.15	1.43382	.00002
343.15	1.4324	.00002
348.15	1.43097	.00002
353.15	1.42953	.00002

System: 1-butyl-3-methylpyridinium bis(trifluoromethylsulfonyl)imide; phases: Liquid, Air at 1 atmosphere
Property: Surface tension liquid-gas, N/m (Liquid); method: Pendant drop shape
Temperature, K	Surface tension liquid-gas, N/m	uncertainty
293.3	.0339	.0005
298.3	.0336	.0005
303.2	.0334	.0005
313.1	.0329	.0005
323	.0324	.0005
333.2	.0319	.0005
343	.0314	.0005
