Measured thermophysical data. Vapor-liquid equilibrium data for the carbon dioxide and nitrogen (CO2+N2 ) system at the temperatures 223, 270, 298 and 303 K and pressures up to 18 MPa
Source: Fluid Phase Equilib., 2016, 10.1016/j.fluid.2015.09.034
Compound 1: carbon dioxide, CO2, purity 99.999%
Compound 2: nitrogen, N2, purity 99.9999%

System: carbon dioxide; phases: Liquid, Gas
Property: Vapor or sublimation pressure, kPa (Liquid); method: Other
Temperature, K	Vapor or sublimation pressure, kPa	uncertainty
223.138	682.9	.5
298.174	6436.9	1.2
303.158	7210.5	1.1

System: carbon dioxide + nitrogen; phases: Liquid, Gas
Property: Mole fraction of carbon dioxide (Liquid); method: Chromatography
Temperature, K	Pressure, kPa	Mole fraction of carbon dioxide	uncertainty
223.138	682.9	1	
223.14	1935.4	.98156	.00027
223.138	4346.8	.94422	.00027
223.139	5028.7	.93314	.00027
223.143	6097.6	.91557	.00027
223.141	6997.9	.90041	.00027
223.139	8115.1	.88108	.00027
223.14	8781.5	.86908	.00028
223.14	9223.2	.86112	.00028
223.141	9829.2	.85043	.00028
223.14	10843	.82974	.00028
223.142	10877.9	.8292	.00028
223.143	12010.6	.80546	.00029
223.138	14922.8	.73343	.00033
223.14	15955.4	.70046	.00038
223.137	17191.1	.64879	.00052
223.139	18156	.57419	.0013
269.996	9582.4	.86046	.00028
298.174	6436.9	1	
298.158	6709	.99359	.00027
298.16	6719.2	.99334	.00027
298.161	7100.3	.98384	.00027
298.162	7419.1	.97525	.00027
298.175	7894.6	.9605	.00028
298.174	8078.2	.95344	.00028
298.171	8147.9	.95029	.00028
298.173	8154.4	.94976	.00028
298.174	8253.1	.94359	.00028
298.174	8274.3	.94155	.00028
298.174	8286.2	.94041	.00028
298.176	8297.1	.93797	.00028
303.158	7210.5	1	
303.156	7403.5	.9945	.00027
303.155	7521.6	.99044	.00028
303.157	7534.5	.98985	.00028
303.157	7545.2	.98928	.00028
303.157	7553.1	.98883	.00028
303.157	7553.9	.98894	.00028
303.157	7557.5	.9884	.00028

System: carbon dioxide + nitrogen; phases: Gas, Liquid
Property: Mole fraction of carbon dioxide (Gas); method: Chromatography
Temperature, K	Pressure, kPa	Mole fraction of carbon dioxide	uncertainty
223.138	682.9	1	
223.139	1938.3	.407	.00031
223.139	4353.5	.23253	.00028
223.139	4365.2	.23239	.00028
223.139	5037.8	.21785	.00028
223.141	6085.3	.20174	.00028
223.139	7009.7	.19326	.00029
223.141	8098.9	.18971	.00028
223.141	8440.3	.18981	.00027
223.142	8607.9	.1898	.00028
223.14	9192	.19069	.00028
223.141	9805	.19283	.00028
223.139	10869.4	.1999	.00029
223.141	11978.7	.20881	.00029
223.138	14969.9	.25683	.00038
223.138	16009.8	.28507	.00033
223.139	17251	.33148	.00034
223.138	18217.3	.4148	.00071
269.997	9557.1	.58169	.00038
269.996	9583.9	.58095	.00036
298.174	6436.9	1	
298.159	6708.8	.98174	.0003
298.158	6719.4	.98097	.00028
298.162	7098.8	.95952	.00028
298.161	7416.3	.94435	.00028
298.163	7417.5	.94434	.00028
298.175	7893.5	.92792	.00028
298.174	8072.4	.92467	.00028
298.169	8143.4	.92461	.00028
298.173	8252.6	.9261	.00028
298.174	8272.1	.92694	.00029
298.175	8286.2	.9273	.00028
298.175	8297.2	.93025	.00028
303.158	7210.5	1	
303.157	7400.7	.99154	.00028
303.157	7467.2	.98904	.00028
303.158	7521.7	.98695	.00028
303.158	7535	.98699	.00028
303.158	7545	.98683	.00028
303.158	7553.2	.98681	.00028
303.158	7554	.98662	.00028
303.157	7554.3	.98641	.00028
303.158	7557.4	.98708	.00028
