Measured thermophysical data. Vapor-liquid equilibria for n-heptane + (benzene, toluene, pxylene, or ethylbenzene) + {[4empy][Tf2N] (0.3) + [emim][DCA] (0.7)} binary ionic liquid mixture
Source: Fluid Phase Equilib., 2016, 10.1016/j.fluid.2016.02.018
Compound 1: n-heptane, C7H16, purity 99.7%
Compound 2: toluene, C7H8, purity 99.5%
Compound 3: benzene, C6H6, purity 99.5%
Compound 4: p-xylene, C8H10, purity 99.0%
Compound 5: ethylbenzene, C8H10, purity 99.8%
Compound 6: 1-ethyl-3-methylimidazolium dicyanamide, C8H11N5, purity 98%
Compound 7: 1-ethyl-4-methylpyridinium bis((trifluoromethyl)sulfonyl)amide, C10H12F6N2O4S2, purity 99%

System: 1-ethyl-3-methylimidazolium dicyanamide; phases: Liquid
Fixed: Pressure, kPa = 101.325
Property: Mass density, kg/m3 (Liquid); method: Vibrating tube method
Temperature, K	Mass density, kg/m3	uncertainty
293.2	1104.9	.1

System: 1-ethyl-4-methylpyridinium bis((trifluoromethyl)sulfonyl)amide; phases: Liquid
Fixed: Pressure, kPa = 101.325
Property: Mass density, kg/m3 (Liquid); method: Vibrating tube method
Temperature, K	Mass density, kg/m3	uncertainty
293.2	1489.9	.1

System: n-heptane + 1-ethyl-3-methylimidazolium dicyanamide + 1-ethyl-4-methylpyridinium bis((trifluoromethyl)sulfonyl)amide; phases: Gas, Liquid
Fixed: Solvent: Mole fraction of 1-ethyl-3-methylimidazolium dicyanamide = .7
Property: Vapor or sublimation pressure, kPa (Gas); method: Closed cell (Static) method
Temperature, K	Mole fraction of n-heptane	Vapor or sublimation pressure, kPa	uncertainty
323.2	.0003	.6	
323.2	.0007	1.7	
323.2	.0012	2.6	
323.2	.0031	5.3	
323.2	.0075	10.4	
323.2	.0174	18.8	
343.2	.0001	.7	
343.2	.0004	1.4	
343.2	.0014	3.7	
343.2	.0039	7.7	
343.2	.0077	12.9	
343.2	.0167	26.2	
343.2	.0306	39.2	
363.2	.0001	.8	
363.2	.0004	1.7	
363.2	.0008	3.2	
363.2	.0021	6.2	
363.2	.0051	12.4	
363.2	.0128	27.2	
363.2	.0199	40.9	
363.2	.0441	77.2	

System: n-heptane + 1-ethyl-3-methylimidazolium dicyanamide + 1-ethyl-4-methylpyridinium bis((trifluoromethyl)sulfonyl)amide; phases: Gas, Liquid
Fixed: Solvent: Mole fraction of 1-ethyl-3-methylimidazolium dicyanamide = .7
Property: Mole fraction of n-heptane (Gas); method: Chromatography
Temperature, K	Mole fraction of n-heptane	Mole fraction of n-heptane	uncertainty
323.2	.0003	1	
323.2	.0007	1	
323.2	.0012	1	
323.2	.0031	1	
323.2	.0075	1	
323.2	.0174	1	
323.2	1	1	
343.2	.0001	1	
343.2	.0004	1	
343.2	.0014	1	
343.2	.0039	1	
343.2	.0077	1	
343.2	.0167	1	
343.2	.0306	1	
343.2	1	1	
363.2	.0001	1	
363.2	.0004	1	
363.2	.0008	1	
363.2	.0021	1	
363.2	.0051	1	
363.2	.0128	1	
363.2	.0199	1	
363.2	.0441	1	
363.2	1	1	

System: toluene + 1-ethyl-3-methylimidazolium dicyanamide + 1-ethyl-4-methylpyridinium bis((trifluoromethyl)sulfonyl)amide; phases: Gas, Liquid
Fixed: Solvent: Mole fraction of 1-ethyl-3-methylimidazolium dicyanamide = .7
Property: Vapor or sublimation pressure, kPa (Gas); method: Closed cell (Static) method
Temperature, K	Mole fraction of toluene	Vapor or sublimation pressure, kPa	uncertainty
323.2	.0138	.3	
323.2	.0654	1.1	
323.2	.1029	1.9	
323.2	.2493	4.7	
323.2	.2973	5.7	
323.2	.3988	7.6	
323.2	.5592	11.9	
343.2	.0166	.6	
343.2	.0665	2.5	
343.2	.1025	3.9	
343.2	.2336	9.8	
343.2	.2888	12.4	
343.2	.3841	17.6	
343.2	.5415	24.4	
343.2	.5923	26.7	
363.2	.0127	.9	
363.2	.062	4.9	
363.2	.0972	7.7	
363.2	.2347	20.5	
363.2	.2707	24.2	
363.2	.3712	33.8	
363.2	.5371	49.3	
363.2	.6105	53.5	

System: toluene + 1-ethyl-3-methylimidazolium dicyanamide + 1-ethyl-4-methylpyridinium bis((trifluoromethyl)sulfonyl)amide; phases: Gas, Liquid
Fixed: Solvent: Mole fraction of 1-ethyl-3-methylimidazolium dicyanamide = .7
Property: Mole fraction of toluene (Gas); method: Chromatography
Temperature, K	Mole fraction of toluene	Mole fraction of toluene	uncertainty
323.2	.0138	1	
323.2	.0654	1	
323.2	.1029	1	
323.2	.2493	1	
323.2	.2973	1	
323.2	.3988	1	
323.2	.5592	1	
323.2	1	1	
343.2	.0166	1	
343.2	.0665	1	
343.2	.1025	1	
343.2	.2336	1	
343.2	.2888	1	
343.2	.3841	1	
343.2	.5415	1	
343.2	.5923	1	
343.2	1	1	
363.2	.0127	1	
363.2	.062	1	
363.2	.0972	1	
363.2	.2347	1	
363.2	.2707	1	
363.2	.3712	1	
363.2	.5371	1	
363.2	.6105	1	
363.2	1	1	

System: benzene + 1-ethyl-3-methylimidazolium dicyanamide + 1-ethyl-4-methylpyridinium bis((trifluoromethyl)sulfonyl)amide; phases: Gas, Liquid
Fixed: Solvent: Mole fraction of 1-ethyl-3-methylimidazolium dicyanamide = .7
Property: Vapor or sublimation pressure, kPa (Gas); method: Closed cell (Static) method
Temperature, K	Mole fraction of benzene	Vapor or sublimation pressure, kPa	uncertainty
323.2	.0099	.5	
323.2	.071	3.6	
323.2	.1221	6.2	
323.2	.178	9.3	
323.2	.2232	11.8	
323.2	.3058	16.6	
323.2	.4546	24.8	
323.2	.5662	30.4	
323.2	.6767	35.3	
343.2	.0145	1.5	
343.2	.0647	6.5	
343.2	.1185	12.7	
343.2	.1683	18.4	
343.2	.216	24.2	
343.2	.2926	33	
343.2	.4374	49.9	
343.2	.5552	59.6	
343.2	.6535	70.7	
343.2	.7118	73	
363.2	.01	1.7	
363.2	.0637	12	
363.2	.1075	21.5	
363.2	.1553	31.8	
363.2	.2001	41.8	
363.2	.2748	59.1	
363.2	.4245	88.7	
363.2	.5372	107.7	
363.2	.6383	127	
363.2	.7123	133.3	
363.2	.7673	135.9	

System: benzene + 1-ethyl-3-methylimidazolium dicyanamide + 1-ethyl-4-methylpyridinium bis((trifluoromethyl)sulfonyl)amide; phases: Gas, Liquid
Fixed: Solvent: Mole fraction of 1-ethyl-3-methylimidazolium dicyanamide = .7
Property: Mole fraction of benzene (Gas); method: Chromatography
Temperature, K	Mole fraction of benzene	Mole fraction of benzene	uncertainty
323.2	.0099	1	
323.2	.071	1	
323.2	.1221	1	
323.2	.178	1	
323.2	.2232	1	
323.2	.3058	1	
323.2	.4546	1	
323.2	.5662	1	
323.2	.6767	1	
323.2	1	1	
343.2	.0145	1	
343.2	.0647	1	
343.2	.1185	1	
343.2	.1683	1	
343.2	.216	1	
343.2	.2926	1	
343.2	.4374	1	
343.2	.5552	1	
343.2	.6535	1	
343.2	.7118	1	
343.2	1	1	
363.2	.01	1	
363.2	.0637	1	
363.2	.1075	1	
363.2	.1553	1	
363.2	.2001	1	
363.2	.2748	1	
363.2	.4245	1	
363.2	.5372	1	
363.2	.6383	1	
363.2	.7123	1	
363.2	.7673	1	
363.2	1	1	

System: p-xylene + 1-ethyl-3-methylimidazolium dicyanamide + 1-ethyl-4-methylpyridinium bis((trifluoromethyl)sulfonyl)amide; phases: Gas, Liquid
Fixed: Solvent: Mole fraction of 1-ethyl-3-methylimidazolium dicyanamide = .7
Property: Vapor or sublimation pressure, kPa (Gas); method: Closed cell (Static) method
Temperature, K	Mole fraction of p-xylene	Vapor or sublimation pressure, kPa	uncertainty
323.2	.0109	.2	
323.2	.0417	.7	
323.2	.0602	1	
323.2	.1037	1.6	
323.2	.1539	2.4	
323.2	.1984	2.9	
323.2	.2424	3.5	
323.2	.284	3.9	
323.2	.3505	4.3	
343.2	.0137	.5	
343.2	.0404	1.5	
343.2	.0558	2.3	
343.2	.1006	3.9	
343.2	.1421	5.3	
343.2	.1943	7	
343.2	.2304	8.1	
343.2	.2597	8.8	
343.2	.3527	10.3	
363.2	.0127	1.1	
363.2	.0382	3.5	
363.2	.0561	5.1	
363.2	.0999	8.8	
363.2	.1391	12.1	
363.2	.1804	15.3	
363.2	.2273	18	
363.2	.2542	19.3	
363.2	.3564	22.4	

System: p-xylene + 1-ethyl-3-methylimidazolium dicyanamide + 1-ethyl-4-methylpyridinium bis((trifluoromethyl)sulfonyl)amide; phases: Gas, Liquid
Fixed: Solvent: Mole fraction of 1-ethyl-3-methylimidazolium dicyanamide = .7
Property: Mole fraction of p-xylene (Gas); method: Chromatography
Temperature, K	Mole fraction of p-xylene	Mole fraction of p-xylene	uncertainty
323.2	.0109	1	
323.2	.0417	1	
323.2	.0602	1	
323.2	.1037	1	
323.2	.1539	1	
323.2	.1984	1	
323.2	.2424	1	
323.2	.284	1	
323.2	.3505	1	
323.2	1	1	
343.2	.0137	1	
343.2	.0404	1	
343.2	.0558	1	
343.2	.1006	1	
343.2	.1421	1	
343.2	.1943	1	
343.2	.2304	1	
343.2	.2597	1	
343.2	.3527	1	
343.2	1	1	
363.2	.0127	1	
363.2	.0382	1	
363.2	.0561	1	
363.2	.0999	1	
363.2	.1391	1	
363.2	.1804	1	
363.2	.2273	1	
363.2	.2542	1	
363.2	.3564	1	
363.2	1	1	

System: ethylbenzene + 1-ethyl-3-methylimidazolium dicyanamide + 1-ethyl-4-methylpyridinium bis((trifluoromethyl)sulfonyl)amide; phases: Gas, Liquid
Fixed: Solvent: Mole fraction of 1-ethyl-3-methylimidazolium dicyanamide = .7
Property: Vapor or sublimation pressure, kPa (Gas); method: Closed cell (Static) method
Temperature, K	Mole fraction of ethylbenzene	Vapor or sublimation pressure, kPa	uncertainty
323.2	.0137	.3	
323.2	.0403	.7	
323.2	.0617	1.1	
323.2	.1007	1.7	
323.2	.1456	2.3	
323.2	.192	2.9	
323.2	.2345	3.4	
323.2	.2632	3.7	
323.2	.3394	4.7	
343.2	.0091	.4	
343.2	.0392	1.9	
343.2	.06	2.8	
343.2	.1052	4.6	
343.2	.1439	5.9	
343.2	.2007	7.7	
343.2	.2248	8.6	
343.2	.257	9.8	
343.2	.3436	11	
363.2	.01	1.2	
363.2	.0394	4	
363.2	.0597	6.1	
363.2	.1003	9.9	
363.2	.1522	14.2	
363.2	.1866	16.6	
363.2	.2259	19.1	
363.2	.2575	20.9	
363.2	.3464	24.1	

System: ethylbenzene + 1-ethyl-3-methylimidazolium dicyanamide + 1-ethyl-4-methylpyridinium bis((trifluoromethyl)sulfonyl)amide; phases: Gas, Liquid
Fixed: Solvent: Mole fraction of 1-ethyl-3-methylimidazolium dicyanamide = .7
Property: Mole fraction of ethylbenzene (Gas); method: Chromatography
Temperature, K	Mole fraction of ethylbenzene	Mole fraction of ethylbenzene	uncertainty
323.2	.0137	1	
323.2	.0403	1	
323.2	.0617	1	
323.2	.1007	1	
323.2	.1456	1	
323.2	.192	1	
323.2	.2345	1	
323.2	.2632	1	
323.2	.3394	1	
323.2	1	1	
343.2	.0091	1	
343.2	.0392	1	
343.2	.06	1	
343.2	.1052	1	
343.2	.1439	1	
343.2	.2007	1	
343.2	.2248	1	
343.2	.257	1	
343.2	.3436	1	
343.2	1	1	
363.2	.01	1	
363.2	.0394	1	
363.2	.0597	1	
363.2	.1003	1	
363.2	.1522	1	
363.2	.1866	1	
363.2	.2259	1	
363.2	.2575	1	
363.2	.3464	1	
363.2	1	1	

System: benzene + n-heptane; phases: Gas, Liquid
Property: Vapor or sublimation pressure, kPa (Gas); method: Closed cell (Static) method
Mole fraction of n-heptane	Temperature, K	Vapor or sublimation pressure, kPa	uncertainty
.2145	323.2	33.9	
.4053	323.2	31.3	
.6289	323.2	28.1	
.8025	323.2	22.9	
.1986	343.2	70	
.4011	343.2	64.3	
.6123	343.2	57.1	
.7998	343.2	48.5	
.1998	363.2	130.2	
.3856	363.2	120.8	
.5997	363.2	108	
.8008	363.2	95.1	

System: benzene + n-heptane; phases: Gas, Liquid
Property: Mole fraction of n-heptane (Gas); method: Chromatography
Mole fraction of n-heptane	Temperature, K	Mole fraction of n-heptane	uncertainty
.2145	323.2	.1435	
.4053	323.2	.2631	
.6289	323.2	.4401	
.8025	323.2	.6295	
.1986	343.2	.1395	
.4011	343.2	.2615	
.6123	343.2	.4423	
.7998	343.2	.6315	
.1998	363.2	.1498	
.3856	363.2	.2821	
.5997	363.2	.4354	
.8008	363.2	.6597	

System: p-xylene + n-heptane; phases: Gas, Liquid
Property: Vapor or sublimation pressure, kPa (Gas); method: Closed cell (Static) method
Mole fraction of n-heptane	Temperature, K	Vapor or sublimation pressure, kPa	uncertainty
.1795	323.2	7.6	
.3708	323.2	10.4	
.5793	323.2	13.2	
.7845	323.2	15.7	
.1891	343.2	17.3	
.3689	343.2	22.6	
.5757	343.2	29.4	
.7734	343.2	34.7	
.1856	363.2	36.2	
.3568	363.2	45.1	
.5749	363.2	55.4	
.7694	363.2	64.9	

System: p-xylene + n-heptane; phases: Gas, Liquid
Property: Mole fraction of n-heptane (Gas); method: Chromatography
Mole fraction of n-heptane	Temperature, K	Mole fraction of n-heptane	uncertainty
.1795	323.2	.5688	
.3708	323.2	.7251	
.5793	323.2	.8558	
.7845	323.2	.9299	
.1891	343.2	.5571	
.3689	343.2	.7154	
.5757	343.2	.8449	
.7734	343.2	.9111	
.1856	363.2	.5211	
.3568	363.2	.6922	
.5749	363.2	.8395	
.7694	363.2	.9005	

System: ethylbenzene + n-heptane; phases: Gas, Liquid
Property: Vapor or sublimation pressure, kPa (Gas); method: Closed cell (Static) method
Mole fraction of n-heptane	Temperature, K	Vapor or sublimation pressure, kPa	uncertainty
.1802	323.2	8.1	
.3699	323.2	10.7	
.5988	323.2	13.6	
.7795	323.2	16.2	
.1791	343.2	18.3	
.3674	343.2	24.1	
.5895	343.2	29.6	
.7713	343.2	33.9	
.1785	363.2	36.5	
.3657	363.2	47.3	
.5889	363.2	58.4	
.7704	363.2	66.6	

System: ethylbenzene + n-heptane; phases: Gas, Liquid
Property: Mole fraction of n-heptane (Gas); method: Chromatography
Mole fraction of n-heptane	Temperature, K	Mole fraction of n-heptane	uncertainty
.1802	323.2	.5497	
.3699	323.2	.7244	
.5988	323.2	.8418	
.7795	323.2	.9187	
.1791	343.2	.5295	
.3674	343.2	.7186	
.5895	343.2	.8353	
.7713	343.2	.9097	
.1785	363.2	.5018	
.3657	363.2	.6926	
.5889	363.2	.8167	
.7704	363.2	.8954	
