Measured thermophysical data. Sodium sulfate solubility in (water + ethanol) mixed solvents in the presence of hydrochloric acid: Experimental measurements and modeling
Source: Fluid Phase Equilib., 2014, 10.1016/j.fluid.2014.10.025
Compound 1: water, H2O, purity 99.8%
Compound 2: ethanol, C2H6O, purity 99.8%
Compound 3: sodium sulfate, Na2O4S, purity 99.5%

System: ethanol + water + sodium sulfate; phases: Liquid, Crystal of intercomponent compound 1
Fixed: Pressure, kPa = 101
Property: Molality, mol/kg of sodium sulfate (Liquid); method: Gravimetric method
Temperature, K	Solvent: Mass fraction of ethanol	Molality, mol/kg of sodium sulfate	uncertainty
298.15	0	2.0118	.0020118
298.15	.05	1.5516	.0015516
298.15	.1	1.0674	.0010674
298.15	.2	.4659	.0004659
298.15	.3	.2011	.0002011
298.15	.4	.08732	.00008732
298.15	.5	.03386	.00003386

System: ethanol + water + sodium sulfate; phases: Liquid, Crystal
Fixed: Pressure, kPa = 101
Property: Molality, mol/kg of sodium sulfate (Liquid); method: Gravimetric method
Temperature, K	Solvent: Mass fraction of ethanol	Molality, mol/kg of sodium sulfate	uncertainty
308.15	0	3.4476	.0034476
308.15	.05	2.5932	.0025932
308.15	.1	1.9527	.0019527
308.15	.2	.9072	.0009072
308.15	.3	.3548	.0003548
308.15	.4	.1306	.0001306
308.15	.5	.04122	.00004122
