Measured thermophysical data. Isothermal vapor liquid equilibrium data for the decafluorobutane(R3110) + 1,1,1,3,3-pentafluorobutane (R365mfc) system attemperatures from 333 K to 441 K
Source: Fluid Phase Equilib., 2013, 10.1016/j.fluid.2013.06.031
Compound 1: decafluorobutane, C4F10
Compound 2: 1,1,1,3,3-pentafluorobutane, C4H5F5

System: 1,1,1,3,3-pentafluorobutane; phases: Liquid, Gas
Property: Vapor or sublimation pressure, kPa (Liquid); method: Closed cell (Static) method
Temperature, K	Vapor or sublimation pressure, kPa	uncertainty
332.79	194.9	.3
333.18	197.1	.3
342.65	261.5	.3
347.94	303.9	.3
352.87	348.7	.3
357.77	401.1	.3
363.03	459.2	.3
367.94	519.8	.3
372.87	586.1	.3
378.04	662.3	.3
382.95	741.4	.3
387.88	828.9	.3
393.02	927.2	.3
398.06	1036.4	.3
402.92	1146	.3
408.07	1271.5	.3
413.09	1403.8	.3
418	1542.4	.3
423.13	1698.6	.3
428.15	1862.7	.3
433.05	2034.5	.3
438.03	2225.4	.3
442.99	2425.5	.3
447.89	2637.1	.3

System: decafluorobutane + 1,1,1,3,3-pentafluorobutane; phases: Liquid, Gas
Property: Vapor or sublimation pressure, kPa (Liquid); method: Closed cell (Static) method
Mole fraction of decafluorobutane	Temperature, K	Vapor or sublimation pressure, kPa	uncertainty
.1082	333.26	386.4	.3
.1487	333.26	430.3	.3
.207	333.26	480.2	.3
.269	333.26	520.3	.3
.3682	333.26	569.1	.3
.472	333.26	612.5	.3
.61	333.26	651.5	.3
.0566	353.34	509.6	.3
.0736	353.34	547	.3
.113	353.34	620.4	.3
.163	353.34	697	.3
.245	353.34	797.2	.3
.359	353.34	894.8	.3
.424	353.34	936	.3
.543	353.34	1006.1	.3
.0526	373.71	782.2	.3
.137	373.71	1004.5	.3
.2028	373.71	1126.1	.3
.3294	373.71	1310.2	.3
.405	373.71	1395.8	.3
.515	373.71	1503.3	.3
.616	373.71	1590.1	.3
.742	373.71	1682.3	.3
.0257	393.64	1060.9	.3
.0698	393.64	1208.2	.3
.2365	393.64	1693	.3
.2949	393.64	1812.2	.3
.3188	393.64	1863.7	.3
.3693	393.64	1950.9	.3
.4062	393.64	2010	.3
.4477	393.64	2076.6	.3
.5048	393.64	2159.8	.3
.566	393.64	2246.8	.3
.649	393.64	2356.2	.3
.7242	393.64	2447.5	.3
.0257	413.65	1556.2	.3
.042	413.65	1641.2	.3
.0615	413.65	1731.6	.3
.0853	413.65	1836.1	.3
.1062	413.65	1922.6	.3
.1409	413.65	2049.4	.3
.1748	413.65	2171.1	.3
.2182	413.65	2302.2	.3
.2367	413.65	2356.4	.3
.2755	413.65	2472.1	.3
.3057	413.65	2546	.3
.3671	413.65	2694.2	.3
.4049	413.65	2778.2	.3
.0089	433.61	2116.3	.3
.0216	433.61	2189.3	.3
.0326	433.61	2257.9	.3
.0483	433.61	2348.7	.3
.0566	433.61	2394.6	.3
.0654	433.61	2442.7	.3
.0749	433.61	2493.4	.3
.0847	433.61	2542.8	.3
.0913	433.61	2575.1	.3
.1017	433.61	2625.6	.3
.1109	433.61	2668.9	.3
.1181	433.61	2702.2	.3
.1317	433.61	2762.3	.3
.1461	433.61	2822.8	.3
.1559	433.61	2865.5	.3
.1852	433.61	2976.5	.3
.2012	433.61	3030.8	.3
.2162	433.61	3071.2	.3
.2352	433.61	3093.1	.3
.0203	441.83	2506.4	.3
.0419	441.83	2639.7	.3
.0595	441.83	2741.5	.3
.0748	441.83	2826.3	.3
.0962	441.83	2935.8	.3
.1157	441.83	3027.7	.3
.1313	441.83	3092.7	.3
.1484	441.83	3149	.3

System: decafluorobutane + 1,1,1,3,3-pentafluorobutane; phases: Gas, Liquid
Property: Mole fraction of decafluorobutane (Gas); method: Chromatography
Mole fraction of decafluorobutane	Temperature, K	Mole fraction of decafluorobutane	uncertainty
.1082	333.26	.478	.0003
.1487	333.26	.5396	.0003
.207	333.26	.6	.0003
.269	333.26	.631	.0003
.3682	333.26	.687	.0003
.472	333.26	.731	.0003
.61	333.26	.778	.0003
.0566	353.34	.276	.0003
.0736	353.34	.332	.0003
.113	353.34	.4239	.0003
.163	353.34	.494	.0003
.245	353.34	.574	.0003
.359	353.34	.6455	.0003
.424	353.34	.6726	.0003
.543	353.34	.725	.0003
.0526	373.71	.2	.0003
.137	373.71	.3653	.0003
.2028	373.71	.4705	.0003
.3294	373.71	.5737	.0003
.405	373.71	.612	.0003
.515	373.71	.669	.0003
.616	373.71	.726	.0003
.742	373.71	.799	.0003
.0257	393.64	.0816	.0003
.0698	393.64	.204	.0003
.2365	393.64	.442	.0003
.2949	393.64	.488	.0003
.3188	393.64	.5046	.0003
.3693	393.64	.5351	.0003
.4062	393.64	.559	.0003
.4477	393.64	.583	.0003
.5048	393.64	.617	.0003
.566	393.64	.6494	.0003
.649	393.64	.702	.0003
.7242	393.64	.7331	.0003
.0257	413.65	.0761	.0003
.042	413.65	.117	.0003
.0615	413.65	.152	.0003
.0853	413.65	.203	.0003
.1062	413.65	.235	.0003
.1409	413.65	.286	.0003
.1748	413.65	.3236	.0003
.2182	413.65	.366	.0003
.2367	413.65	.3756	.0003
.2755	413.65	.406	.0003
.3057	413.65	.426	.0003
.3671	413.65	.4538	.0003
.4049	413.65	.435	.0003
.0089	433.61	.0211	.0003
.0216	433.61	.0479	.0003
.0326	433.61	.0675	.0003
.0483	433.61	.0976	.0003
.0566	433.61	.1137	.0003
.0654	433.61	.126	.0003
.0749	433.61	.1394	.0003
.0847	433.61	.154	.0003
.0913	433.61	.162	.0003
.1017	433.61	.1766	.0003
.1109	433.61	.1884	.0003
.1181	433.61	.1952	.0003
.1317	433.61	.2089	.0003
.1461	433.61	.2224	.0003
.1559	433.61	.229	.0003
.1852	433.61	.2462	.0003
.2012	433.61	.253	.0003
.2162	433.61	.2564	.0003
.2352	433.61	.25	.0003
.0203	441.83	.0402	.0003
.0419	441.83	.0768	.0003
.0595	441.83	.1019	.0003
.0748	441.83	.1213	.0003
.0962	441.83	.1438	.0003
.1157	441.83	.1595	.0003
.1313	441.83	.1678	.0003
.1484	441.83	.1664	.0003
