Measured thermophysical data. Determination and modeling of binary and ternary solid-liquid phase equilibrium for the systems formed by adipic acid, urea and diethylene glycol
Source: Fluid Phase Equilib., 2016, 10.1016/j.fluid.2015.12.026
Compound 1: adipic acid, C6H10O4, purity 99.9%
Compound 2: urea, CH4N2O, purity 99.2%
Compound 3: diethylene glycol, C4H10O3, purity 99.8%

System: diethylene glycol + adipic acid; phases: Liquid, Crystal
Fixed: Pressure, kPa = 101.3
Property: Mass fraction of adipic acid (Liquid); method: Chromatography
Temperature, K	Mass fraction of adipic acid	uncertainty
298.15	.06521	
303.15	.07054	
308.15	.07462	
313.15	.0814	
318.15	.08851	
323.15	.09507	
328.15	.103	
333.15	.1108	

System: urea + diethylene glycol; phases: Liquid, Crystal
Fixed: Pressure, kPa = 101.3
Property: Mass fraction of urea (Liquid); method: UV spectophotometry
Temperature, K	Mass fraction of urea	uncertainty
298.15	.3476	
303.15	.368	
308.15	.3888	
313.15	.4081	
318.15	.4284	
323.15	.448	
328.15	.4707	
333.15	.4905	

System: urea + diethylene glycol + adipic acid; phases: Liquid, Crystal
Fixed: Pressure, kPa = 101.3
Property: Mass fraction of urea (Liquid); method: Schreinemaker's wet residue method
Temperature, K	Mass fraction of adipic acid	Mass fraction of urea	uncertainty
298.15	0	.2315	
298.15	.0159	.2271	
298.15	.0381	.2239	
298.15	.0666	.2179	
313.15	0	.2807	
313.15	.0231	.2726	
313.15	.0412	.2672	
313.15	.0574	.2629	
313.15	.0797	.2546	
333.15	0	.3526	
333.15	.0356	.3415	
333.15	.0579	.3355	
333.15	.0834	.3287	
333.15	.1104	.3231	

System: urea + diethylene glycol + adipic acid; phases: Liquid, Crystal
Fixed: Pressure, kPa = 101.3
Property: Mass fraction of adipic acid (Liquid); method: Schreinemaker's wet residue method
Temperature, K	Mass fraction of urea	Mass fraction of adipic acid	uncertainty
298.15	.2179	.0666	
298.15	.1832	.0705	
298.15	.1526	.0737	
298.15	.1165	.0767	
298.15	.0799	.0802	
298.15	.0392	.0837	
298.15	0	.0878	
313.15	.2546	.0797	
313.15	.2096	.0848	
313.15	.1679	.0892	
313.15	.1237	.0942	
313.15	.0867	.0987	
313.15	.0501	.1029	
313.15	0	.1087	
333.15	.3231	.1104	
333.15	.2796	.1149	
333.15	.2376	.1204	
333.15	.2012	.124	
333.15	.1529	.1298	
333.15	.1063	.135	
333.15	.0569	.1404	
333.15	0	.1472	

System: urea + diethylene glycol + adipic acid; phases: Liquid, Crystal, Crystal
Fixed: Pressure, kPa = 101.3
Property: Mass fraction of urea (Liquid); method: Schreinemaker's wet residue method
Temperature, K	Mass fraction of urea	uncertainty
298.15	.2179	
313.15	.2546	
333.15	.3231	

System: urea + diethylene glycol + adipic acid; phases: Liquid, Crystal, Crystal
Fixed: Pressure, kPa = 101.3
Property: Mass fraction of adipic acid (Liquid); method: Schreinemaker's wet residue method
Temperature, K	Mass fraction of adipic acid	uncertainty
298.15	.0666	
313.15	.0797	
333.15	.1104	

System: urea + diethylene glycol + adipic acid; phases: Liquid
Fixed: Pressure, kPa = 101.3
Property: Mass density, kg/m3 (Liquid); method: Vibrating tube method
Temperature, K	Mass fraction of adipic acid	Mass fraction of urea	Mass density, kg/m3	uncertainty
298.15	0	.2315	1160.9	
298.15	.0159	.2271	1173.7	
298.15	.0381	.2239	1186	
298.15	.0666	.2179	1204.2	
298.15	.0705	.1832	1200.2	
298.15	.0737	.1526	1194.7	
298.15	.0767	.1165	1190.6	
298.15	.0802	.0799	1183.9	
298.15	.0837	.0392	1177.4	
298.15	.0878	0	1171.8	
313.15	0	.2807	1174.2	
313.15	.0231	.2726	1185.4	
313.15	.0412	.2672	1195.6	
313.15	.0574	.2629	1208	
313.15	.0797	.2546	1220.4	
313.15	.0848	.2096	1211.8	
313.15	.0892	.1679	1206.1	
313.15	.0942	.1237	1198.7	
313.15	.0987	.0867	1190.5	
313.15	.1029	.0501	1184.5	
313.15	.1087	0	1175.7	
333.15	0	.3526	1184.5	
333.15	.0356	.3415	1203.1	
333.15	.0579	.3355	1217.7	
333.15	.0834	.3287	1234.2	
333.15	.1104	.3231	1252.7	
333.15	.1149	.2796	1243.9	
333.15	.1204	.2376	1237.5	
333.15	.124	.2012	1227.6	
333.15	.1298	.1529	1220	
333.15	.135	.1063	1208.2	
333.15	.1404	.0569	1200.1	
333.15	.1472	0	1188.2	
