Measured thermophysical data. A milliliter-scale setup for the efficient characterization of isothermal vapor-liquid equilibria using Raman spectroscopy
Source: Fluid Phase Equilib., 2017, 10.1016/j.fluid.2017.04.014
Compound 1: methyl tert-butyl ether, C5H12O, purity 99.8%
Compound 2: isooctane, C8H18, purity 99.8%
Compound 3: ethanol, C2H6O, purity 99.9%
Compound 4: toluene, C7H8, purity 99.8%

System: methyl tert-butyl ether; phases: Liquid, Gas
Property: Vapor or sublimation pressure, kPa (Liquid); method: Closed cell (Static) method
Temperature, K	Vapor or sublimation pressure, kPa	uncertainty
283.6	17.79	
288.6	22.07	
293.5	27.43	
298.4	33.72	
303.3	41.1	
308.2	49.8	
313.1	59.9	
318.1	71.61	
323	85.01	
327.9	100.34	
332.9	117.7	
337.8	137.39	

System: isooctane; phases: Liquid, Gas
Property: Vapor or sublimation pressure, kPa (Liquid); method: Closed cell (Static) method
Temperature, K	Vapor or sublimation pressure, kPa	uncertainty
283.6	3.05	
288.4	3.99	
293.4	5.18	
298.3	6.63	
298.4	6.62	
303.3	8.39	
308.2	10.53	
313.1	12.97	
318.1	15.96	
323	19.54	
328	23.81	
332.8	28.66	

System: ethanol; phases: Liquid, Gas
Property: Vapor or sublimation pressure, kPa (Liquid); method: Closed cell (Static) method
Temperature, K	Vapor or sublimation pressure, kPa	uncertainty
278.6	2.18	
283.5	3.11	
293.4	5.95	
298.3	7.96	
303.2	10.52	
308.1	13.84	
313.1	17.87	
318.1	22.98	
322.9	29.05	
327.9	36.73	
332.8	46.15	

System: toluene; phases: Liquid, Gas
Property: Vapor or sublimation pressure, kPa (Liquid); method: Closed cell (Static) method
Temperature, K	Vapor or sublimation pressure, kPa	uncertainty
278.7	1.26	
283.6	1.7	
288.5	2.26	
293.4	2.97	
298.3	3.89	
303.2	5	
308.1	6.27	
313.1	7.99	
318	9.95	
323	12.26	
327.9	15	
332.8	18.26	
337.8	22.04	

System: isooctane + methyl tert-butyl ether; phases: Liquid, Gas
Fixed: Temperature, K = 318.1
Property: Vapor or sublimation pressure, kPa (Liquid); method: Closed cell (Static) method
Mole fraction of methyl tert-butyl ether	Vapor or sublimation pressure, kPa	uncertainty
.058	19.69	
.064	20.21	
.069	20.66	
.074	21.09	
.088	21.52	
.14	25.07	
.159	26.12	
.218	29.65	
.254	31.91	
.277	33.28	
.355	37.94	
.41	41.08	
.47	44.03	
.526	46.93	
.684	54.99	
.728	57.32	
.757	58.89	
.893	66.41	
.906	67.21	
.914	67.58	

System: isooctane + methyl tert-butyl ether; phases: Gas, Liquid
Fixed: Temperature, K = 318.1
Property: Mole fraction of methyl tert-butyl ether (Gas); method: Raman spectroscopy
Mole fraction of methyl tert-butyl ether	Mole fraction of methyl tert-butyl ether	uncertainty
.058	.24	
.064	.26	
.069	.27	
.074	.28	
.088	.31	
.14	.41	
.159	.45	
.218	.58	
.254	.62	
.277	.65	
.355	.71	
.41	.74	
.47	.81	
.526	.83	
.684	.9	
.728	.92	
.757	.93	
.893	.96	
.906	.99	
.914	.99	
