Measured thermophysical data. Separation of methane/ethylene gas mixtures efficiently by using ZIF- 67/water-ethylene glycol slurry
Source: Fluid Phase Equilib., 2016, 10.1016/j.fluid.2016.01.003
Compound 1: diethylene glycol, C4H10O3, purity 99.5%
Compound 2: cobalt(2+) 2-methyl-1H-imidazole, C8H12CoN4, purity 98%
Compound 3: methane, CH4, purity 99.99%
Compound 4: ethylene, C2H4, purity 99.99%
Compound 5: water, H2O, purity 99.9%

System: methane + ethylene + diethylene glycol; phases: Gas, Liquid
Fixed: Pressure, kPa = 7380
Fixed: Temperature, K = 283.2
Property: Mole fraction of ethylene (Gas); method: Chromatography
Mole fraction of ethylene	Mole fraction of ethylene	uncertainty
.904	.721	

System: methane + ethylene + water; phases: Gas, Liquid
Fixed: Pressure, kPa = 7690
Fixed: Temperature, K = 283.2
Property: Mole fraction of ethylene (Gas); method: Chromatography
Mole fraction of ethylene	Mole fraction of ethylene	uncertainty
.927	.729	

System: methane + ethylene + cobalt(2+) 2-methyl-1H-imidazole; phases: Gas, Liquid
Fixed: Pressure, kPa = 690
Fixed: Temperature, K = 283.2
Property: Mole fraction of ethylene (Gas); method: Chromatography
Mole fraction of ethylene	Mole fraction of ethylene	uncertainty
.861	.668	
