Measured thermophysical data. Ternary liquid-liquid equilibria for methyl isopropyl ketone + (resorcinol or hydroquinone) + water systems at different temperatures
Source: Fluid Phase Equilib., 2016, 10.1016/j.fluid.2016.08.040
Compound 1: methyl isopropyl ketone, C5H10O, purity 99%
Compound 2: resorcinol, C6H6O2, purity 99%
Compound 3: hydroquinone, C6H6O2, purity 99%
Compound 4: n-butyl acetate, C6H12O2, purity 99%
Compound 5: 1-octanol, C8H18O, purity 99%
Compound 6: water, H2O, purity 99.8%

System: hydroquinone + methyl isopropyl ketone + water; phases: Liquid mixture 2, Liquid mixture 1
Property: Mass fraction of hydroquinone (Liquid mixture 2); method: Chromatography
Property: Mass fraction of methyl isopropyl ketone (Liquid mixture 1); method: Chromatography
Property: Mass fraction of hydroquinone (Liquid mixture 1); method: Chromatography
Temperature, K	Pressure, kPa	Mass fraction of methyl isopropyl ketone	Mass fraction of hydroquinone	uncertainty	Mass fraction of methyl isopropyl ketone	uncertainty	Mass fraction of hydroquinone	uncertainty
298.2	101	.931	.0307		.0573		.0017	
313.2	101	.898	.0529		.0445		.0042	
313.2	101	.886	.0622		.0441		.0052	
313.2	101	.862	.0804		.0434		.0073	
313.2	101	.845	.093		.0421		.0092	
313.2	101	.82	.1121		.0413		.0115	
313.2	101	.794	.1312		.0398		.0139	
313.2	101	.744	.1696		.0357		.0205	
323.2	101	.925	.0289		.0455		.0028	
323.2	101	.9	.0486		.0443		.0049	
323.2	101	.881	.0634		.0439		.0068	
298.2	101	.901	.0512		.0551		.0035	
323.2	101	.867	.0719		.0431		.0083	
323.2	101	.847	.0852		.0419		.0101	
323.2	101	.82	.1083		.0405		.0138	
323.2	101	.797	.1255		.0387		.0167	
323.2	101	.754	.1533		.0366		.0215	
298.2	101	.89	.0584		.0546		.0041	
298.2	101	.87	.0764		.0529		.0056	
298.2	101	.857	.0867		.0515		.0069	
298.2	101	.823	.1138		.0486		.0096	
298.2	101	.783	.1473		.0442		.0138	
298.2	101	.732	.1864		.038		.0196	
313.2	101	.926	.0308		.0459		.0023	

System: resorcinol + methyl isopropyl ketone + water; phases: Liquid mixture 2, Liquid mixture 1
Property: Mass fraction of resorcinol (Liquid mixture 2); method: Chromatography
Property: Mass fraction of methyl isopropyl ketone (Liquid mixture 1); method: Chromatography
Property: Mass fraction of resorcinol (Liquid mixture 1); method: Chromatography
Temperature, K	Pressure, kPa	Mass fraction of methyl isopropyl ketone	Mass fraction of resorcinol	uncertainty	Mass fraction of methyl isopropyl ketone	uncertainty	Mass fraction of resorcinol	uncertainty
298.2	101	.943	.0196		.0579		.0009	
313.2	101	.904	.0464		.0445		.0034	
313.2	101	.858	.0832		.0427		.0067	
313.2	101	.819	.114		.0406		.0103	
313.2	101	.785	.1396		.0387		.0139	
313.2	101	.754	.1624		.0371		.0175	
313.2	101	.738	.173		.0356		.0203	
313.2	101	.712	.1927		.0343		.0236	
323.2	101	.932	.0207		.0457		.0017	
323.2	101	.899	.0468		.0439		.0047	
323.2	101	.859	.0775		.0426		.0094	
298.2	101	.907	.0485		.0558		.0025	
323.2	101	.825	.1054		.0405		.0139	
323.2	101	.797	.1259		.0383		.0182	
323.2	101	.749	.1619		.036		.0245	
323.2	101	.733	.1732		.0348		.0269	
323.2	101	.713	.1878		.0329		.0293	
298.2	101	.867	.0799		.0531		.0048	
298.2	101	.839	.1025		.0511		.0067	
298.2	101	.799	.1334		.0476		.01	
298.2	101	.774	.1524		.0451		.0123	
298.2	101	.747	.1755		.0417		.0155	
298.2	101	.711	.2027		.0374		.0196	
313.2	101	.935	.0213		.0463		.0013	
