Measured thermophysical data. Thermodynamic and micellization properties of aqueous cetyltrimethylammonium bromide solution in presence of 1-butyl-2,3-dimethylimidazolium bromide
Source: Fluid Phase Equilib., 2016, 10.1016/j.fluid.2015.12.042
Compound 1: cetyltrimethylammonium bromide, C19H42BrN, purity 99.0%
Compound 2: 1-butyl-2,3-dimethylimidazolium bromide, C9H17BrN2, purity 98%
Compound 3: water, H2O, purity 99.8%

System: cetyltrimethylammonium bromide + water + 1-butyl-2,3-dimethylimidazolium bromide; phases: Liquid
Fixed: Pressure, kPa = 100
Property: Electrical conductivity, S/m (Liquid); method: Alternating current cell with electrodes
Solvent: Mass fraction of 1-butyl-2,3-dimethylimidazolium bromide	Temperature, K	Molality, mol/kg of cetyltrimethylammonium bromide	Electrical conductivity, S/m	uncertainty
0	298.15	.0009199	.008654	
0	298.15	.0008688	.008249	
0	298.15	.0008231	.007888	
0	298.15	.000782	.007527	
0	298.15	.0007447	.007225	
0	298.15	.0007109	.006957	
0	298.15	.0006516	.006465	
0	298.15	.0006015	.006097	
0	298.15	.0005586	.005719	
0	298.15	.0005213	.005389	
0	298.15	.0004887	.005089	
0	308.15	.0009199	.008829	
0	308.15	.0008688	.008446	
0	308.15	.0008231	.008045	
0	308.15	.000782	.007734	
0	308.15	.0007447	.007423	
0	308.15	.0007109	.007125	
0	308.15	.0006516	.006674	
0	308.15	.0006015	.006265	
0	308.15	.0005586	.005887	
0	308.15	.0005213	.005594	
0	308.15	.0004887	.005305	
0	318.15	.0009199	.008975	
0	318.15	.0008688	.008593	
0	318.15	.0008231	.00823	
0	318.15	.000782	.007916	
0	318.15	.0007447	.007594	
0	318.15	.0007109	.007323	
0	318.15	.0006516	.006835	
0	318.15	.0006015	.006463	
0	318.15	.0005586	.006117	
0	318.15	.0005213	.0058	
0	318.15	.0004887	.005571	
.001	298.15	.0007318	.04719	
.001	298.15	.0006953	.04709	
.001	298.15	.0006622	.04695	
.001	298.15	.0006321	.04683	
.001	298.15	.0006046	.04673	
.001	298.15	.0005794	.04662	
.001	298.15	.0005562	.0465	
.001	298.15	.0005348	.04641	
.001	298.15	.000515	.04633	
.001	298.15	.0004795	.04619	
.001	298.15	.0004345	.046	
.001	308.15	.0007318	.04734	
.001	308.15	.0006953	.04718	
.001	308.15	.0006622	.04705	
.001	308.15	.0006321	.04693	
.001	308.15	.0006046	.04681	
.001	308.15	.0005794	.04672	
.001	308.15	.0005562	.04663	
.001	308.15	.0005348	.04654	
.001	308.15	.000515	.04646	
.001	308.15	.0004795	.04631	
.001	308.15	.0004345	.04613	
.001	318.15	.0007318	.04744	
.001	318.15	.0006953	.04732	
.001	318.15	.0006622	.04718	
.001	318.15	.0006321	.04705	
.001	318.15	.0006046	.04695	
.001	318.15	.0005794	.04683	
.001	318.15	.0005562	.04676	
.001	318.15	.0005348	.04668	
.001	318.15	.000515	.04661	
.001	318.15	.0004795	.04645	
.001	318.15	.0004345	.04627	
.002	298.15	.0003484	.08499	
.002	298.15	.0003266	.08498	
.002	298.15	.0003074	.08497	
.002	298.15	.0002903	.08496	
.002	298.15	.0002751	.08495	
.002	298.15	.0002613	.08493	
.002	298.15	.0002489	.08491	
.002	298.15	.0002375	.08489	
.002	298.15	.0002272	.08487	
.002	298.15	.0002178	.08485	
.002	298.15	.000209	.08484	
.002	298.15	.000201	.08483	
.002	298.15	.0001936	.08481	
.002	298.15	.0001866	.0848	
.002	298.15	.0001802	.08479	
.002	298.15	.0001742	.08478	
.002	298.15	.0001686	.08477	
.002	298.15	.0001633	.08476	
.002	308.15	.0003266	.08509	
.002	308.15	.0003074	.08506	
.002	308.15	.0002903	.08503	
.002	308.15	.0002751	.085	
.002	308.15	.0002613	.08498	
.002	308.15	.0002489	.08496	
.002	308.15	.0002375	.08494	
.002	308.15	.0002272	.08492	
.002	308.15	.0002178	.0849	
.002	308.15	.000209	.08489	
.002	308.15	.000201	.08487	
.002	308.15	.0001936	.08486	
.002	308.15	.0001866	.08485	
.002	308.15	.0001802	.08484	
.002	308.15	.0001742	.08483	
.002	308.15	.0001686	.08482	
.002	308.15	.0001633	.08481	
.002	318.15	.0003266	.08516	
.002	318.15	.0003074	.08513	
.002	318.15	.0002903	.0851	
.002	318.15	.0002751	.08507	
.002	318.15	.0002613	.08504	
.002	318.15	.0002489	.08502	
.002	318.15	.0002375	.085	
.002	318.15	.0002272	.08499	
.002	318.15	.0002178	.08497	
.002	318.15	.000209	.08496	
.002	318.15	.000201	.08494	
.002	318.15	.0001936	.08492	
.002	318.15	.0001866	.08492	
.002	318.15	.0001802	.0849	
.002	318.15	.0001742	.08489	
.002	318.15	.0001686	.08487	
.002	318.15	.0001633	.08486	
