Measured thermophysical data. Solubilities of R-161 and R-143a in 1-Hexyl-3-methylimidazolium bis(trifluoromethylsulfonyl)imide
Source: Fluid Phase Equilib., 2015, 10.1016/j.fluid.2014.12.026
Compound 1: fluoroethane, C2H5F, purity 99.95%
Compound 2: 1,1,1-trifluoroethane, C2H3F3, purity 99.8%
Compound 3: 1-hexyl-3-methylimidazolium bis(trifluoromethylsulfonyl)imide, C12H19F6N3O4S2, purity 99%
Compound 4: carbon dioxide, CO2, purity 99.999%

System: carbon dioxide + 1-hexyl-3-methylimidazolium bis(trifluoromethylsulfonyl)imide; phases: Liquid, Gas
Property: Mole fraction of carbon dioxide (Liquid); method: volumetric
Temperature, K	Pressure, kPa	Mole fraction of carbon dioxide	uncertainty
312.8	358	.0933	.0019
313.1	1515	.275	.0055
313.2	2241	.3718	.0074
313.4	2675	.4228	.0085
313.4	3458	.4929	.0099
313.5	4152	.5564	.0111
323.4	1650	.264	.0053
324.6	2487	.355	.0071
323.2	2927	.4081	.0082
324	3814	.4763	.0095
323.4	4649	.5337	.0107
333.5	1772	.2555	.0051
333.1	2641	.3468	.0069
333.4	3190	.3934	.0079
333.4	4140	.4614	.0092
333.4	5074	.5182	.0104

System: fluoroethane + 1-hexyl-3-methylimidazolium bis(trifluoromethylsulfonyl)imide; phases: Liquid, Gas
Property: Mole fraction of fluoroethane (Liquid); method: volumetric
Temperature, K	Pressure, kPa	Mole fraction of fluoroethane	uncertainty
303.7	30	.0351	.0007
302.5	66	.0848	.0017
303.9	113.6	.1422	.0028
302.2	147.3	.1891	.0038
303.1	182.8	.2281	.0046
303.2	219.7	.2919	.0058
302.6	246.1	.3213	.0064
303.9	291.7	.3547	.0071
303.9	327.6	.3878	.0078
312.7	35	.034	.0007
313.3	81	.0819	.0016
312.7	136.1	.1383	.0028
312.3	183.2	.1835	.0037
312.6	222.5	.2224	.0044
312.6	267.5	.2861	.0057
313	307.6	.3144	.0063
312.6	323.7	.33	.0066
313.2	355	.3482	.007
313.3	400	.3811	.0076
323.2	41	.0327	.0007
323.4	98.3	.0787	.0016
323.1	165.2	.1335	.0027
322.3	222.1	.1776	.0036
322.8	270.4	.2158	.0043
322.9	326.5	.2792	.0056
322.9	371.3	.3074	.0061
322.5	394.1	.3226	.0065
323.7	436	.3401	.0068
322.6	479.7	.3738	.0075
333.4	47	.0316	.0006
332.2	111.4	.0765	.0015
333	193.5	.1291	.0026
333.9	267.3	.1712	.0034
333	321.6	.209	.0042
333.2	387.5	.2723	.0054
333.1	442.2	.2999	.006
333.3	473	.3146	.0063
334.1	519.1	.332	.0066
333.7	582.3	.3646	.0073
343.4	53	.0305	.0006
343.3	129.9	.0735	.0015
343.2	223.4	.1247	.0025
342.3	300.6	.1666	.0033
342.5	369.1	.203	.0041
343.2	452.5	.2651	.0053
343.5	518.3	.2921	.0058
343.2	550.9	.3068	.0061
344.3	606.6	.3238	.0065
343	673	.3567	.0071

System: 1,1,1-trifluoroethane + 1-hexyl-3-methylimidazolium bis(trifluoromethylsulfonyl)imide; phases: Liquid, Gas
Property: Mole fraction of 1,1,1-trifluoroethane (Liquid); method: volumetric
Temperature, K	Pressure, kPa	Mole fraction of 1,1,1-trifluoroethane	uncertainty
302.7	130	.0558	.0011
303.5	200	.0896	.0018
303.6	367	.1637	.0033
303.5	448	.1936	.0039
303.3	556	.244	.0049
303.7	734	.2955	.0059
302.8	830	.3421	.0068
303.8	913	.3561	.0071
313.5	151	.052	.001
312.7	227	.0847	.0017
313.2	423	.1549	.0031
313	506	.1854	.0037
313.9	651	.2308	.0046
312.5	849	.2803	.0056
312.4	979	.3237	.0065
313	1046	.3412	.0068
322.5	168	.049	.001
322.9	169	.0489	.001
322.7	258	.0796	.0016
323.5	483	.1457	.0029
323.2	580	.1745	.0035
322.6	742	.2181	.0044
323.2	991	.2619	.0052
322.6	1141	.3041	.0061
322.2	1208	.322	.0064
333.2	188	.0457	.0009
334	291	.0744	.0015
333.4	541	.1376	.0028
333.3	650	.1652	.0033
333.3	651	.1651	.0033
333	830	.2074	.0041
332.5	1111	.2473	.0049
332.8	1301	.2855	.0057
332.8	1381	.3028	.0061
342.6	204	.0434	.0009
342.3	315	.071	.0014
342.3	590	.1312	.0026
342.2	712	.1573	.0031
342.9	920	.1968	.0039
342.9	1245	.2316	.0046
343	1457	.2685	.0054
342.7	1545	.285	.0057
