Measured thermophysical data. Solubility of non-aromatic ionic liquids in water and correlation using a QSPR approach
Source: Fluid Phase Equilib., 2010, 10.1016/j.fluid.2009.12.035
Compound 1: 1-butyl-3-methylimidazolium hexafluorophosphate, C8H15F6N2P
Compound 2: 1-methyl-1-propylpyrrolidinium bis[(trifluoromethyl)sulfonyl]imide, C10H18F6N2O4S2
Compound 3: 1-butyl-1-methylpyrrolidinium bis[(trifluoromethyl)sulfonyl]imide, C11H20F6N2O4S2
Compound 4: 1-methyl-1-propylpiperidinium bis(trifluoromethylsulfonyl)imide, C11H20F6N2O4S2
Compound 5: water, H2O, purity 99.9%

System: water + 1-butyl-3-methylimidazolium hexafluorophosphate; phases: Liquid mixture 1, Liquid mixture 2
Fixed: Pressure, kPa = 101
Property: Mole fraction of 1-butyl-3-methylimidazolium hexafluorophosphate (Liquid mixture 1); method: electrospray ionization mass spectrometry
Temperature, K	Mole fraction of 1-butyl-3-methylimidazolium hexafluorophosphate	uncertainty
288.15	.00112	.00006
293.15	.00113	.00001
298.15	.00128	.00001
303.15	.00137	.00001
308.15	.00133	.00004
313.15	.00147	.00001
318.15	.00166	.00002

System: water + 1-methyl-1-propylpiperidinium bis(trifluoromethylsulfonyl)imide; phases: Liquid mixture 1, Liquid mixture 2
Fixed: Pressure, kPa = 101
Property: Mole fraction of 1-methyl-1-propylpiperidinium bis(trifluoromethylsulfonyl)imide (Liquid mixture 1); method: electrospray ionization mass spectrometry
Temperature, K	Mole fraction of 1-methyl-1-propylpiperidinium bis(trifluoromethylsulfonyl)imide	uncertainty
288.15	.000342	.000022
293.15	.000359	.000021
298.15	.000368	.000003
303.15	.000386	.000016
308.15	.000418	.000007
313.15	.000451	.000024
318.15	.000463	.000003

System: water + 1-methyl-1-propylpyrrolidinium bis[(trifluoromethyl)sulfonyl]imide; phases: Liquid mixture 1, Liquid mixture 2
Fixed: Pressure, kPa = 101
Property: Mole fraction of 1-methyl-1-propylpyrrolidinium bis[(trifluoromethyl)sulfonyl]imide (Liquid mixture 1); method: electrospray ionization mass spectrometry
Temperature, K	Mole fraction of 1-methyl-1-propylpyrrolidinium bis[(trifluoromethyl)sulfonyl]imide	uncertainty
288.15	.000415	.000003
293.15	.000445	.000008
298.15	.000436	.000004
303.15	.000481	.00002
308.15	.000485	.000003
313.15	.000511	.000005
318.15	.000537	.000003

System: water + 1-butyl-1-methylpyrrolidinium bis[(trifluoromethyl)sulfonyl]imide; phases: Liquid mixture 1, Liquid mixture 2
Fixed: Pressure, kPa = 101
Property: Mole fraction of 1-butyl-1-methylpyrrolidinium bis[(trifluoromethyl)sulfonyl]imide (Liquid mixture 1); method: electrospray ionization mass spectrometry
Temperature, K	Mole fraction of 1-butyl-1-methylpyrrolidinium bis[(trifluoromethyl)sulfonyl]imide	uncertainty
288.15	.000214	.000009
293.15	.000232	.000009
298.15	.000238	.000001
303.15	.000231	.000011
308.15	.000252	.000001
313.15	.000267	.000001
318.15	.000294	.000011
