Measured thermophysical data. Phase equilibria of (water + propionic acid or butyric acid + 2-methoxy- 2-methylpropane) ternary systems at 298.2 K and 323.2 K
Source: Fluid Phase Equilib., 2015, 10.1016/j.fluid.2015.06.003
Compound 1: methyl tert-butyl ether, C5H12O, purity 99%
Compound 2: propionic acid, C3H6O2, purity 99.5%
Compound 3: butyric acid, C4H8O2, purity 99.5%
Compound 4: isobutyric acid, C4H8O2, purity 99.5%
Compound 5: methanol, CH4O, purity 99.9%
Compound 6: n-butanol, C4H10O, purity 99.5%
Compound 7: water, H2O, purity 99.9%

System: methyl tert-butyl ether; phases: Liquid
Fixed: Pressure, kPa = 101.325
Property: Mass density, kg/m3 (Liquid); method: Vibrating tube method
Temperature, K	Mass density, kg/m3	uncertainty
298.2	737.8	.01

System: methyl tert-butyl ether; phases: Liquid
Fixed: Pressure, kPa = 101.325
Property: Refractive index (Na D-line) (Liquid); method: Standard Abbe refractometry
Temperature, K	Refractive index (Na D-line)	uncertainty
298.2	1.3689	.00001

System: propionic acid; phases: Liquid
Fixed: Pressure, kPa = 101.325
Property: Mass density, kg/m3 (Liquid); method: Vibrating tube method
Temperature, K	Mass density, kg/m3	uncertainty
298.2	988.1	.01

System: propionic acid; phases: Liquid
Fixed: Pressure, kPa = 101.325
Property: Refractive index (Na D-line) (Liquid); method: Standard Abbe refractometry
Temperature, K	Refractive index (Na D-line)	uncertainty
298.2	1.38084	.00001

System: butyric acid; phases: Liquid
Fixed: Pressure, kPa = 101.325
Property: Mass density, kg/m3 (Liquid); method: Vibrating tube method
Temperature, K	Mass density, kg/m3	uncertainty
298.2	952.1	.01

System: butyric acid; phases: Liquid
Fixed: Pressure, kPa = 101.325
Property: Refractive index (Na D-line) (Liquid); method: Standard Abbe refractometry
Temperature, K	Refractive index (Na D-line)	uncertainty
298.2	1.3981	.00001

System: isobutyric acid; phases: Liquid
Fixed: Pressure, kPa = 101.325
Property: Mass density, kg/m3 (Liquid); method: Vibrating tube method
Temperature, K	Mass density, kg/m3	uncertainty
298.2	941.63	.01

System: isobutyric acid; phases: Liquid
Fixed: Pressure, kPa = 101.325
Property: Refractive index (Na D-line) (Liquid); method: Standard Abbe refractometry
Temperature, K	Refractive index (Na D-line)	uncertainty
298.2	1.3899	.00001

System: methanol; phases: Liquid
Fixed: Pressure, kPa = 101.325
Property: Mass density, kg/m3 (Liquid); method: Vibrating tube method
Temperature, K	Mass density, kg/m3	uncertainty
298.2	791	.01

System: methanol; phases: Liquid
Fixed: Pressure, kPa = 101.325
Property: Refractive index (Na D-line) (Liquid); method: Standard Abbe refractometry
Temperature, K	Refractive index (Na D-line)	uncertainty
298.2	1.3281	.00001

System: n-butanol; phases: Liquid
Fixed: Pressure, kPa = 101.325
Property: Mass density, kg/m3 (Liquid); method: Vibrating tube method
Temperature, K	Mass density, kg/m3	uncertainty
298.2	807.96	.01

System: n-butanol; phases: Liquid
Fixed: Pressure, kPa = 101.325
Property: Refractive index (Na D-line) (Liquid); method: Standard Abbe refractometry
Temperature, K	Refractive index (Na D-line)	uncertainty
298.2	1.3941	.00001

System: water; phases: Liquid
Fixed: Pressure, kPa = 101.325
Property: Mass density, kg/m3 (Liquid); method: Vibrating tube method
Temperature, K	Mass density, kg/m3	uncertainty
298.2	997.15	.01

System: water; phases: Liquid
Fixed: Pressure, kPa = 101.325
Property: Refractive index (Na D-line) (Liquid); method: Standard Abbe refractometry
Temperature, K	Refractive index (Na D-line)	uncertainty
298.2	1.33244	.00001

System: propionic acid + methyl tert-butyl ether + water; phases: Liquid, Liquid
Fixed: Pressure, kPa = 101
Property: Mole fraction of propionic acid (Liquid); method: Titration method
Temperature, K	Mole fraction of methyl tert-butyl ether	Mole fraction of propionic acid	uncertainty
298.2	.9453	0	.0002
298.2	.8713	.0485	.0002
298.2	.7814	.0836	.0002
298.2	.6897	.1259	.0002
298.2	.6158	.1588	.0002
298.2	.5332	.1874	.0002
298.2	.4602	.2309	.0002
298.2	.3752	.2504	.0002
298.2	.2844	.2698	.0002
298.2	.1996	.2878	.0002
298.2	.1321	.2601	.0002
298.2	.0922	.1965	.0002
298.2	.0625	.1596	.0002
298.2	.0413	.1203	.0002
298.2	.0296	.062	.0002
298.2	.0078	0	.0002
232.2	.9299	0	.0002
232.2	.8375	.0384	.0002
232.2	.751	.0757	.0002
232.2	.6742	.1089	.0002
232.2	.5989	.1466	.0002
232.2	.5062	.1908	.0002
232.2	.4264	.2341	.0002
232.2	.3357	.2658	.0002
232.2	.2511	.2804	.0002
232.2	.194	.2899	.0002
232.2	.1143	.2602	.0002
232.2	.0847	.2217	.0002
232.2	.0613	.1588	.0002
232.2	.0344	.1184	.0002
232.2	.0125	.0624	.0002
232.2	.005	0	.0002

System: propionic acid + methyl tert-butyl ether + water; phases: Liquid mixture 2, Liquid mixture 1
Property: Mole fraction of methyl tert-butyl ether (Liquid mixture 2); method: Chromatography
Property: Mole fraction of propionic acid (Liquid mixture 1); method: Chromatography
Property: Mole fraction of methyl tert-butyl ether (Liquid mixture 1); method: Chromatography
Temperature, K	Pressure, kPa	Mole fraction of propionic acid	Mole fraction of methyl tert-butyl ether	uncertainty	Mole fraction of propionic acid	uncertainty	Mole fraction of methyl tert-butyl ether	uncertainty
298.2	101.325	.7669	.0703	.0002	.0046	.0002	.0079	.0002
323.2	101.325	.642	.1307	.0002	.0105	.0002	.0044	.0002
323.2	101.325	.5263	.1891	.0002	.0185	.0002	.0048	.0002
323.2	101.325	.4347	.2263	.0002	.0296	.0002	.0052	.0002
323.2	101.325	.3414	.265	.0002	.0381	.0002	.0054	.0002
323.2	101.325	.2605	.2825	.0002	.0478	.0002	.0072	.0002
323.2	101.325	.2006	.2936	.0002	.0612	.0002	.0099	.0002
323.2	101.325	.149	.3011	.0002	.0858	.0002	.0125	.0002
298.2	101.325	.6526	.1299	.0002	.0093	.0002	.0083	.0002
298.2	101.325	.5699	.1664	.0002	.014	.0002	.0088	.0002
298.2	101.325	.4755	.1996	.0002	.0209	.0002	.0095	.0002
298.2	101.325	.3886	.229	.0002	.0277	.0002	.0102	.0002
298.2	101.325	.2969	.2587	.0002	.0359	.0002	.0114	.0002
298.2	101.325	.2171	.2795	.0002	.0466	.0002	.0122	.0002
298.2	101.325	.1576	.2808	.0002	.0543	.0002	.014	.0002
323.2	101.325	.7557	.0735	.0002	.005	.0002	.0041	.0002

System: butyric acid + methyl tert-butyl ether + water; phases: Liquid, Liquid
Fixed: Pressure, kPa = 101
Property: Mole fraction of butyric acid (Liquid); method: Titration method
Temperature, K	Mole fraction of methyl tert-butyl ether	Mole fraction of butyric acid	uncertainty
298.2	.9453	0	.0002
298.2	.8752	.0432	.0002
298.2	.7954	.0901	.0002
298.2	.7122	.1269	.0002
298.2	.6277	.1833	.0002
298.2	.5649	.2068	.0002
298.2	.4646	.2439	.0002
298.2	.366	.2951	.0002
298.2	.2718	.3056	.0002
298.2	.1864	.3077	.0002
298.2	.1396	.2702	.0002
298.2	.0957	.2013	.0002
298.2	.0643	.1621	.0002
298.2	.045	.122	.0002
298.2	.0284	.0597	.0002
298.2	.0078	0	.0002
323.2	.9299	0	.0002
323.2	.8502	.0523	.0002
323.2	.7796	.0935	.0002
323.2	.6887	.1428	.0002
323.2	.6201	.1903	.0002
323.2	.5284	.234	.0002
323.2	.4325	.2819	.0002
323.2	.3189	.3162	.0002
323.2	.2227	.3557	.0002
323.2	.1615	.3482	.0002
323.2	.1101	.3184	.0002
323.2	.0899	.2493	.0002
323.2	.0681	.1812	.0002
323.2	.0403	.1146	.0002
323.2	.0179	.0461	.0002
323.2	.005	0	.0002

System: butyric acid + methyl tert-butyl ether + water; phases: Liquid mixture 2, Liquid mixture 1
Property: Mole fraction of butyric acid (Liquid mixture 2); method: Chromatography
Property: Mole fraction of butyric acid (Liquid mixture 1); method: Chromatography
Property: Mole fraction of methyl tert-butyl ether (Liquid mixture 1); method: Chromatography
Temperature, K	Pressure, kPa	Mole fraction of methyl tert-butyl ether	Mole fraction of butyric acid	uncertainty	Mole fraction of butyric acid	uncertainty	Mole fraction of methyl tert-butyl ether	uncertainty
298.2	101.325	.7968	.0858	.0002	.0022	.0002	.0075	.0002
323.2	101.325	.7264	.1182	.0002	.0037	.0002	.0045	.0002
323.2	101.325	.5908	.1899	.0002	.0063	.0002	.0038	.0002
323.2	101.325	.467	.2535	.0002	.0096	.0002	.0031	.0002
323.2	101.325	.3484	.3119	.0002	.0138	.0002	.0028	.0002
323.2	101.325	.2686	.3427	.0002	.0165	.0002	.0024	.0002
323.2	101.325	.1968	.3556	.0002	.0194	.0002	.0021	.0002
323.2	101.325	.1328	.3704	.0002	.0225	.0002	.002	.0002
298.2	101.325	.7094	.1307	.0002	.0036	.0002	.0067	.0002
298.2	101.325	.5728	.1924	.0002	.0055	.0002	.0062	.0002
298.2	101.325	.4528	.2371	.0002	.0071	.0002	.006	.0002
298.2	101.325	.3621	.2896	.0002	.009	.0002	.0053	.0002
298.2	101.325	.2867	.3127	.0002	.0112	.0002	.005	.0002
298.2	101.325	.1912	.3304	.0002	.0141	.0002	.0043	.0002
298.2	101.325	.1514	.3401	.0002	.0159	.0002	.0033	.0002
323.2	101.325	.7975	.0803	.0002	.0024	.0002	.0046	.0002
