Measured thermophysical data. Accurate density measurements on a binary mixture (carbon dioxide + methane) at the vicinity of the critical point in the supercritical state by a single-sinker densimeter
Source: Fluid Phase Equilib., 2016, 10.1016/j.fluid.2015.08.029
Compound 1: nitrogen, N2, purity 99.9999%
Compound 2: carbon dioxide, CO2, purity 99.9995%
Compound 3: methane, CH4, purity 99.9990%

System: methane + carbon dioxide; phases: Gas
Property: Mass density, kg/m3 (Gas); method: Buoyancy - hydrostatic balance with magnetic suspension - one sinker
Pressure, kPa	Temperature, K	Mole fraction of carbon dioxide	Mass density, kg/m3	uncertainty
1990.46	301.146	.95	37.5288	
2980.54	301.153	.95	59.7905	
4003.49	301.141	.95	86.6567	
4979.79	301.147	.95	117.931	
5978.25	301.143	.95	160.13	
6976	301.133	.95	227.803	

System: methane + carbon dioxide; phases: Liquid
Fixed: Mole fraction of carbon dioxide = .95
Property: Mass density, kg/m3 (Liquid); method: Buoyancy - hydrostatic balance with magnetic suspension - one sinker
Pressure, kPa	Temperature, K	Mass density, kg/m3	uncertainty
7972.73	301.11	489.743	
8970.67	301.113	641.991	
9969.39	301.14	689.045	
10966.8	301.137	718.917	
11966	301.143	741.154	

System: methane + carbon dioxide; phases: Fluid (supercritical or subcritical phases)
Fixed: Mole fraction of carbon dioxide = .95
Property: Mass density, kg/m3 (Fluid (supercritical or subcritical phases)); method: Buoyancy - hydrostatic balance with magnetic suspension - one sinker
Temperature, K	Pressure, kPa	Mass density, kg/m3	uncertainty
300.066	7972.16	556.595	
300.173	8169.81	590.047	
300.14	8371.04	616.06	
300.145	8570.34	633.917	
300.148	8770.2	648.153	
300.147	8969.38	660.072	
300.147	9169.69	670.371	
300.149	9370.44	679.432	
300.153	9569.61	687.435	
300.158	9768.38	694.681	
300.153	9968.37	701.498	
301.07	7972.39	491.013	
301.17	8170.52	547.088	
301.142	8371.46	585.039	
301.144	8570.67	609.188	
301.151	8770.47	627.154	
301.15	8970.66	641.721	
301.156	9169.72	653.715	
301.149	9370.65	664.364	
301.151	9568.52	673.475	
301.147	9768.64	681.815	
301.151	9968.2	689.247	
302.074	7971.54	416.856	
302.158	8169.9	489.715	
302.163	8371.09	543.85	
302.147	8570.04	578.598	
302.147	8769.88	602.454	
302.148	8969.13	620.555	
302.149	9168.81	635.22	
302.15	9368.96	647.538	
302.156	9568.33	658.091	
302.156	9768.3	667.497	
302.156	9970.65	676.016	
303.083	7971.02	368.276	
303.153	8169.02	434.951	
303.154	8369.83	500.535	
303.147	8569.37	546.267	
303.15	8770.16	577.054	
303.17	8969.28	598.947	
303.156	9168.68	616.875	
303.162	9368.39	631.164	
303.161	9567.71	643.384	
303.168	9767.96	653.938	
303.158	9967.13	663.476	
304.098	7971.05	329.354	
304.158	8171.48	378.227	
304.167	8370.02	438.794	
304.139	8569.16	496.33	
304.149	8769.26	537.629	
304.142	8968.39	567.739	
304.152	9169.47	590.204	
304.166	9370.69	607.811	
304.149	9567.86	622.735	
304.166	9767.28	634.947	
304.157	9973.77	646.365	
305.105	7971.66	307.661	
305.162	8169.92	344.406	
305.151	8370.96	394.247	
305.152	8569.76	449.045	
305.152	8769.4	497.809	
305.148	8968.58	535.323	
305.152	9168.26	563.28	
305.169	9370.3	584.841	
305.152	9568.06	602.629	
305.157	9767.15	617.141	
305.157	9967.5	629.726	
306.096	7971.02	291.729	
306.169	8170.1	321.108	
306.183	8370.58	359.348	
306.143	8569.26	407.211	
306.147	8769.43	456.137	
306.166	8968.96	498.232	
306.164	9168.15	532.249	
306.153	9367.85	559.009	
306.15	9567.37	580.099	
306.151	9767.56	597.343	
306.166	9967.54	611.559	
307.107	7970.75	279.021	
307.182	8170.19	303.687	
307.174	8370.13	335.111	
307.158	8569.41	373.594	
307.151	8769.23	417.545	
307.176	8969.57	460.414	
307.185	9168.12	498.151	
307.155	9369.37	530.475	
307.169	9567.72	554.846	
307.163	9769.89	575.499	
307.146	9968.33	592.558	
308.137	7971.8	268.365	
308.173	8171.22	290.106	
308.172	8372.59	316.707	
308.177	8570.32	347.84	
308.162	8773.53	385.91	
308.154	8969.56	425.843	
308.166	9168.95	464.65	
308.169	9368.54	499.11	
308.164	9568.14	527.899	
308.159	9771.98	552.011	
308.163	9967.26	570.979	
309.133	7971.98	259.723	
309.168	8171.04	279.024	
309.179	8371.43	301.81	
309.174	8570.82	328.632	
309.168	8772.17	360.359	
309.153	8969.69	395.876	
309.165	9170.08	432.906	
309.166	9368.95	468.272	
309.159	9568.6	499.83	
309.161	9768.9	526.36	
309.148	9967.34	548.766	
310.135	7971.59	252.206	
310.174	8169.94	269.525	
310.169	8371.27	289.994	
310.169	8570.47	313.293	
310.183	8771.33	340.177	
310.173	8969.38	370.784	
310.151	9168.83	404.887	
310.159	9368.69	438.984	
310.171	9568.24	470.935	
310.151	9768.43	500.279	
310.174	9969.37	524.504	
311.134	7972.68	245.539	
311.169	8170.74	261.395	
311.168	8372.11	279.845	
311.169	8571.29	300.517	
311.192	8770.55	323.691	
311.151	8969.39	351.047	
311.159	9169.25	380.674	
311.186	9369.01	411.617	
311.179	9568.62	443.32	
311.166	9768.1	473.276	
311.167	9967.76	499.737	
312.131	7972.37	239.656	
312.193	8172.67	254.332	
312.191	8372.19	270.995	
312.18	8571.46	289.726	
312.173	8771.14	310.807	
312.187	8970.53	334.208	
312.181	9169.82	360.525	
312.189	9369.6	388.871	
312.17	9568.56	418.783	
312.168	9768.9	448.071	
312.173	9967.68	475.106	
313.14	7973.28	234.195	
313.175	8171.52	247.96	
313.182	8372.46	263.421	
313.169	8571.79	280.559	
313.172	8771.56	299.532	
313.172	8970.58	320.608	
313.166	9170.19	344.172	
313.173	9369.73	369.68	
313.182	9569.06	396.668	
313.171	9768.43	424.626	

System: methane + carbon dioxide; phases: Liquid
Fixed: Mole fraction of carbon dioxide = .95
Property: Mass density, kg/m3 (Liquid); method: Buoyancy - hydrostatic balance with magnetic suspension - one sinker
Temperature, K	Pressure, kPa	Mass density, kg/m3	uncertainty
301.082	7573.57	317.651	
301.16	7673.54	347.909	
301.15	7772.89	394.053	
301.128	7872.34	446.609	
301.144	7972.1	486.831	
301.148	8071.63	522.073	
301.144	8170.14	548.746	
301.15	8271.68	569.213	
302.093	7574.34	293.998	
302.157	7674.44	312.96	
302.155	7774.35	340.924	
302.139	7873.74	376.389	
302.147	7973.51	414.824	
302.142	8073.14	455.2	
302.142	8171.51	491.43	
302.143	8273.33	521.984	
