Measured thermophysical data. Ternary liquid-liquid equilibria of bis(trifluoromethylsulfonyl)-amidebased ionic liquids + 2-propanol + di-iso-propyl ether
Source: Fluid Phase Equilib., 2014, 10.1016/j.fluid.2014.06.028
Compound 1: 4-(2-methoxyethyl)-4-methylmorpholinium bis(trifluoromethylsulfonyl)amide, C10H18F6N2O6S2, purity 99.5%
Compound 2: 1-(2-methoxyethyl)-1-methylpiperidinium bis(trifluoromethylsulfonyl)imide, C11H20F6N2O5S2, purity 99.5%
Compound 3: 1-(2-methoxyethyl)-1-methylpyrrolidinium bis((trifluoromethyl)sulfonyl)amide, C10H18F6N2O5S2, purity 99.5%
Compound 4: propan-2-ol, C3H8O, purity 99.9%
Compound 5: diisopropyl ether, C6H14O, purity 99%

System: propan-2-ol + diisopropyl ether + 4-(2-methoxyethyl)-4-methylmorpholinium bis(trifluoromethylsulfonyl)amide; phases: Liquid mixture 2, Liquid mixture 1
Property: Mole fraction of 4-(2-methoxyethyl)-4-methylmorpholinium bis(trifluoromethylsulfonyl)amide (Liquid mixture 2); method: Chromatography
Property: Mole fraction of propan-2-ol (Liquid mixture 1); method: Chromatography
Property: Mole fraction of 4-(2-methoxyethyl)-4-methylmorpholinium bis(trifluoromethylsulfonyl)amide (Liquid mixture 1); method: Chromatography
Temperature, K	Pressure, kPa	Mole fraction of propan-2-ol	Mole fraction of 4-(2-methoxyethyl)-4-methylmorpholinium bis(trifluoromethylsulfonyl)amide	uncertainty	Mole fraction of propan-2-ol	uncertainty	Mole fraction of 4-(2-methoxyethyl)-4-methylmorpholinium bis(trifluoromethylsulfonyl)amide	uncertainty
298.15	101	0	.873	.002	0	.002	0	.002
298.15	101	.319	.523	.002	.424	.002	.003	.002
298.15	101	.36	.485	.002	.516	.002	.007	.002
298.15	101	.397	.451	.002	.582	.002	.008	.002
298.15	101	.429	.424	.002	.625	.002	.011	.002
298.15	101	.431	.423	.002	.631	.002	.011	.002
298.15	101	.451	.407	.002	.668	.002	.015	.002
298.15	101	.491	.377	.002	.729	.002	.017	.002
298.15	101	.527	.352	.002	.779	.002	.017	.002
298.15	101	.574	.333	.002	.862	.002	.017	.002
298.15	101	.623	.318	.002	.924	.002	.016	.002
298.15	101	.641	.315	.002	.95	.002	.014	.002
298.15	101	.67	.33	.002	.995	.002	.005	.002
298.15	101	.083	.778	.002	.066	.002	0	.002
298.15	101	.175	.676	.002	.159	.002	.001	.002
298.15	101	.207	.64	.002	.206	.002	.001	.002
298.15	101	.223	.624	.002	.233	.002	.001	.002
298.15	101	.246	.599	.002	.277	.002	.001	.002
298.15	101	.31	.532	.002	.412	.002	.003	.002

System: propan-2-ol + diisopropyl ether + 1-(2-methoxyethyl)-1-methylpiperidinium bis(trifluoromethylsulfonyl)imide; phases: Liquid mixture 2, Liquid mixture 1
Property: Mole fraction of 1-(2-methoxyethyl)-1-methylpiperidinium bis(trifluoromethylsulfonyl)imide (Liquid mixture 2); method: Chromatography
Property: Mole fraction of propan-2-ol (Liquid mixture 1); method: Chromatography
Property: Mole fraction of 1-(2-methoxyethyl)-1-methylpiperidinium bis(trifluoromethylsulfonyl)imide (Liquid mixture 1); method: Chromatography
Temperature, K	Pressure, kPa	Mole fraction of propan-2-ol	Mole fraction of 1-(2-methoxyethyl)-1-methylpiperidinium bis(trifluoromethylsulfonyl)imide	uncertainty	Mole fraction of propan-2-ol	uncertainty	Mole fraction of 1-(2-methoxyethyl)-1-methylpiperidinium bis(trifluoromethylsulfonyl)imide	uncertainty
298.15	101	0	.776	.002	0	.002	.001	.002
298.15	101	.085	.67	.002	.047	.002	.001	.002
298.15	101	.151	.6	.002	.101	.002	.001	.002
298.15	101	.189	.562	.002	.141	.002	.002	.002
298.15	101	.238	.506	.002	.205	.002	.002	.002
298.15	101	.253	.487	.002	.222	.002	.002	.002
298.15	101	.264	.474	.002	.237	.002	.002	.002
298.15	101	.311	.422	.002	.308	.002	.004	.002
298.15	101	.346	.385	.002	.36	.002	.005	.002
298.15	101	.356	.378	.002	.387	.002	.007	.002
298.15	101	.42	.309	.002	.468	.002	.013	.002
298.15	101	.456	.28	.002	.518	.002	.022	.002
298.15	101	.509	.229	.002	.577	.002	.062	.002

System: propan-2-ol + diisopropyl ether + 1-(2-methoxyethyl)-1-methylpyrrolidinium bis((trifluoromethyl)sulfonyl)amide; phases: Liquid mixture 2, Liquid mixture 1
Property: Mole fraction of 1-(2-methoxyethyl)-1-methylpyrrolidinium bis((trifluoromethyl)sulfonyl)amide (Liquid mixture 2); method: Chromatography
Property: Mole fraction of propan-2-ol (Liquid mixture 1); method: Chromatography
Property: Mole fraction of 1-(2-methoxyethyl)-1-methylpyrrolidinium bis((trifluoromethyl)sulfonyl)amide (Liquid mixture 1); method: Chromatography
Temperature, K	Pressure, kPa	Mole fraction of propan-2-ol	Mole fraction of 1-(2-methoxyethyl)-1-methylpyrrolidinium bis((trifluoromethyl)sulfonyl)amide	uncertainty	Mole fraction of propan-2-ol	uncertainty	Mole fraction of 1-(2-methoxyethyl)-1-methylpyrrolidinium bis((trifluoromethyl)sulfonyl)amide	uncertainty
298.15	101	0	.795	.002	0	.002	0	.002
298.15	101	.123	.66	.002	.093	.002	0	.002
298.15	101	.201	.579	.002	.169	.002	.001	.002
298.15	101	.241	.522	.002	.227	.002	.002	.002
298.15	101	.263	.498	.002	.259	.002	.002	.002
298.15	101	.31	.453	.002	.331	.002	.004	.002
298.15	101	.353	.394	.002	.407	.002	.005	.002
298.15	101	.401	.36	.002	.473	.002	.009	.002
298.15	101	.413	.353	.002	.496	.002	.011	.002
298.15	101	.438	.326	.002	.531	.002	.014	.002
298.15	101	.463	.296	.002	.558	.002	.019	.002
298.15	101	.521	.243	.002	.624	.002	.036	.002
298.15	101	.555	.213	.002	.644	.002	.056	.002
