Measured thermophysical data. Atmospheric densities and interfacial tensions for 1- alkanol (1-butanol to 1-octanol) + water and ether (MTBE, ETBE, DIPE, TAME and THP) + water demixed mixtures.
Source: Fluid Phase Equilib., 2015, 10.1016/j.fluid.2015.03.040
Compound 1: 1-butanol, C4H10O, purity 99%
Compound 2: 1-pentanol, C5H12O, purity 99.7%
Compound 3: 1-hexanol, C6H14O, purity 99.9%
Compound 4: 1-heptanol, C7H16O, purity 99.9%
Compound 5: 1-octanol, C8H18O, purity 99.9%
Compound 6: tetrahydropyran, C5H10O, purity 99.8%
Compound 7: methyl tert-butyl ether, C5H12O, purity 99.9%
Compound 8: tert-amyl methyl ether, C6H14O, purity 99.7%
Compound 9: ethyl tert-butyl ether, C6H14O, purity 99.9%
Compound 10: diisopropyl ether, C6H14O, purity 99.9%
Compound 11: water, H2O, purity 99.9%

System: 1-butanol; phases: Liquid
Fixed: Pressure, kPa = 101.325
Property: Refractive index (Na D-line) (Liquid); method: Standard Abbe refractometry
Temperature, K	Refractive index (Na D-line)	uncertainty
298.15	1.39886	.00001

System: 1-butanol; phases: Liquid
Fixed: Pressure, kPa = 101.325
Property: Mass density, kg/m3 (Liquid); method: Vibrating tube method
Temperature, K	Mass density, kg/m3	uncertainty
298.15	805.8	.01

System: 1-butanol; phases: Liquid
Fixed: Pressure, kPa = 101.325
Property: Surface tension liquid-gas, N/m (Liquid); method: Maximal bubble pressure
Temperature, K	Surface tension liquid-gas, N/m	uncertainty
298.15	.0237	.00001

System: 1-pentanol; phases: Liquid
Fixed: Pressure, kPa = 101.325
Property: Refractive index (Na D-line) (Liquid); method: Standard Abbe refractometry
Temperature, K	Refractive index (Na D-line)	uncertainty
298.15	1.40941	.00001

System: 1-pentanol; phases: Liquid
Fixed: Pressure, kPa = 101.325
Property: Mass density, kg/m3 (Liquid); method: Vibrating tube method
Temperature, K	Mass density, kg/m3	uncertainty
298.15	810.89	.01

System: 1-pentanol; phases: Liquid
Fixed: Pressure, kPa = 101.325
Property: Surface tension liquid-gas, N/m (Liquid); method: Maximal bubble pressure
Temperature, K	Surface tension liquid-gas, N/m	uncertainty
298.15	.0247	.00001

System: 1-hexanol; phases: Liquid
Fixed: Pressure, kPa = 101.325
Property: Refractive index (Na D-line) (Liquid); method: Standard Abbe refractometry
Temperature, K	Refractive index (Na D-line)	uncertainty
298.15	1.41738	.00001

System: 1-hexanol; phases: Liquid
Fixed: Pressure, kPa = 101.325
Property: Mass density, kg/m3 (Liquid); method: Vibrating tube method
Temperature, K	Mass density, kg/m3	uncertainty
298.15	816.15	.01

System: 1-hexanol; phases: Liquid
Fixed: Pressure, kPa = 101.325
Property: Surface tension liquid-gas, N/m (Liquid); method: Maximal bubble pressure
Temperature, K	Surface tension liquid-gas, N/m	uncertainty
298.15	.0259	.00001

System: 1-heptanol; phases: Liquid
Fixed: Pressure, kPa = 101.325
Property: Refractive index (Na D-line) (Liquid); method: Standard Abbe refractometry
Temperature, K	Refractive index (Na D-line)	uncertainty
298.15	1.42384	.00001

System: 1-heptanol; phases: Liquid
Fixed: Pressure, kPa = 101.325
Property: Mass density, kg/m3 (Liquid); method: Vibrating tube method
Temperature, K	Mass density, kg/m3	uncertainty
298.15	818.93	.01

System: 1-heptanol; phases: Liquid
Fixed: Pressure, kPa = 101.325
Property: Surface tension liquid-gas, N/m (Liquid); method: Maximal bubble pressure
Temperature, K	Surface tension liquid-gas, N/m	uncertainty
298.15	.0274	.00001

System: 1-octanol; phases: Liquid
Fixed: Pressure, kPa = 101.325
Property: Refractive index (Na D-line) (Liquid); method: Standard Abbe refractometry
Temperature, K	Refractive index (Na D-line)	uncertainty
298.15	1.42884	.00001

System: 1-octanol; phases: Liquid
Fixed: Pressure, kPa = 101.325
Property: Mass density, kg/m3 (Liquid); method: Vibrating tube method
Temperature, K	Mass density, kg/m3	uncertainty
298.15	822.25	.01

System: 1-octanol; phases: Liquid
Fixed: Pressure, kPa = 101.325
Property: Surface tension liquid-gas, N/m (Liquid); method: Maximal bubble pressure
Temperature, K	Surface tension liquid-gas, N/m	uncertainty
298.15	.028	.00001

System: tetrahydropyran; phases: Liquid
Fixed: Pressure, kPa = 101.325
Property: Refractive index (Na D-line) (Liquid); method: Standard Abbe refractometry
Temperature, K	Refractive index (Na D-line)	uncertainty
298.15	1.42004	.00001

System: tetrahydropyran; phases: Liquid
Fixed: Pressure, kPa = 101.325
Property: Mass density, kg/m3 (Liquid); method: Vibrating tube method
Temperature, K	Mass density, kg/m3	uncertainty
298.15	879.44	.01

System: tetrahydropyran; phases: Liquid
Fixed: Pressure, kPa = 101.325
Property: Surface tension liquid-gas, N/m (Liquid); method: Maximal bubble pressure
Temperature, K	Surface tension liquid-gas, N/m	uncertainty
298.15	.028	.00001

System: methyl tert-butyl ether; phases: Liquid
Fixed: Pressure, kPa = 101.325
Property: Refractive index (Na D-line) (Liquid); method: Standard Abbe refractometry
Temperature, K	Refractive index (Na D-line)	uncertainty
298.15	1.36764	.00001

System: methyl tert-butyl ether; phases: Liquid
Fixed: Pressure, kPa = 101.325
Property: Mass density, kg/m3 (Liquid); method: Vibrating tube method
Temperature, K	Mass density, kg/m3	uncertainty
298.15	735.31	.01

System: methyl tert-butyl ether; phases: Liquid
Fixed: Pressure, kPa = 101.325
Property: Surface tension liquid-gas, N/m (Liquid); method: Maximal bubble pressure
Temperature, K	Surface tension liquid-gas, N/m	uncertainty
298.15	.0175	.00001

System: tert-amyl methyl ether; phases: Liquid
Fixed: Pressure, kPa = 101.325
Property: Refractive index (Na D-line) (Liquid); method: Standard Abbe refractometry
Temperature, K	Refractive index (Na D-line)	uncertainty
298.15	1.38736	.00001

System: tert-amyl methyl ether; phases: Liquid
Fixed: Pressure, kPa = 101.325
Property: Mass density, kg/m3 (Liquid); method: Vibrating tube method
Temperature, K	Mass density, kg/m3	uncertainty
298.15	765.91	.01

System: tert-amyl methyl ether; phases: Liquid
Fixed: Pressure, kPa = 101.325
Property: Surface tension liquid-gas, N/m (Liquid); method: Maximal bubble pressure
Temperature, K	Surface tension liquid-gas, N/m	uncertainty
298.15	.0203	.00001

System: ethyl tert-butyl ether; phases: Liquid
Fixed: Pressure, kPa = 101.325
Property: Refractive index (Na D-line) (Liquid); method: Standard Abbe refractometry
Temperature, K	Refractive index (Na D-line)	uncertainty
298.15	1.37468	.00001

System: ethyl tert-butyl ether; phases: Liquid
Fixed: Pressure, kPa = 101.325
Property: Mass density, kg/m3 (Liquid); method: Vibrating tube method
Temperature, K	Mass density, kg/m3	uncertainty
298.15	736.65	.01

System: ethyl tert-butyl ether; phases: Liquid
Fixed: Pressure, kPa = 101.325
Property: Surface tension liquid-gas, N/m (Liquid); method: Maximal bubble pressure
Temperature, K	Surface tension liquid-gas, N/m	uncertainty
298.15	.01973	.00001

System: diisopropyl ether; phases: Liquid
Fixed: Pressure, kPa = 101.325
Property: Refractive index (Na D-line) (Liquid); method: Standard Abbe refractometry
Temperature, K	Refractive index (Na D-line)	uncertainty
298.15	1.3665	.00001

System: diisopropyl ether; phases: Liquid
Fixed: Pressure, kPa = 101.325
Property: Mass density, kg/m3 (Liquid); method: Vibrating tube method
Temperature, K	Mass density, kg/m3	uncertainty
298.15	718.89	.01

System: diisopropyl ether; phases: Liquid
Fixed: Pressure, kPa = 101.325
Property: Surface tension liquid-gas, N/m (Liquid); method: Maximal bubble pressure
Temperature, K	Surface tension liquid-gas, N/m	uncertainty
298.15	.0169	.00001

System: water; phases: Liquid
Fixed: Pressure, kPa = 101.325
Property: Refractive index (Na D-line) (Liquid); method: Standard Abbe refractometry
Temperature, K	Refractive index (Na D-line)	uncertainty
298.15	1.33374	.00001

System: water; phases: Liquid
Fixed: Pressure, kPa = 101.325
Property: Mass density, kg/m3 (Liquid); method: Vibrating tube method
Temperature, K	Mass density, kg/m3	uncertainty
298.15	996.7	.01

System: water; phases: Liquid
Fixed: Pressure, kPa = 101.325
Property: Surface tension liquid-gas, N/m (Liquid); method: Maximal bubble pressure
Temperature, K	Surface tension liquid-gas, N/m	uncertainty
298.15	.07194	.00001

System: 1-butanol + water; phases: Liquid mixture 1, Liquid mixture 2
Fixed: Pressure, kPa = 101
Property: Mass density, kg/m3 (Liquid mixture 1); method: Vibrating tube method
Temperature, K	Mass density, kg/m3	uncertainty
278.15	988.19	.01
288.15	987.76	.01
298.15	985.96	.01
308.15	983.25	.01
318.15	979.33	.01
328.15	974.57	.01
338.15	968.9	.01
348.15	962.62	.01
358.15	954.7	.01

System: 1-butanol + water; phases: Liquid mixture 2, Liquid mixture 1
Fixed: Pressure, kPa = 101
Property: Mass density, kg/m3 (Liquid mixture 2); method: Vibrating tube method
Temperature, K	Mass density, kg/m3	uncertainty
278.15	858.05	.01
288.15	851.15	.01
298.15	844.37	.01
308.15	837.78	.01
318.15	831.37	.01
328.15	825.62	.01
338.15	820.53	.01
348.15	815.68	.01
358.15	809.77	.01

System: 1-butanol + water; phases: Liquid mixture 1, Liquid mixture 2
Fixed: Pressure, kPa = 101
Property: Interfacial tension, N/m (Liquid mixture 1); method: Drop volume
Temperature, K	Interfacial tension, N/m	uncertainty
278.15	.00149	.00001
288.15	.00163	.00001
298.15	.00168	.00001
308.15	.00169	.00001
318.15	.00163	.00001
328.15	.00154	.00001
338.15	.00139	.00001
348.15	.0012	.00001
358.15	.00104	.00001

System: 1-pentanol + water; phases: Liquid mixture 1, Liquid mixture 2
Fixed: Pressure, kPa = 101
Property: Mass density, kg/m3 (Liquid mixture 1); method: Vibrating tube method
Temperature, K	Mass density, kg/m3	uncertainty
278.15	996.38	.01
288.15	995.67	.01
298.15	993.79	.01
308.15	990.95	.01
318.15	987.22	.01
328.15	982.82	.01
338.15	977.69	.01
348.15	972.04	.01
358.15	965.99	.01

System: 1-pentanol + water; phases: Liquid mixture 2, Liquid mixture 1
Fixed: Pressure, kPa = 101
Property: Mass density, kg/m3 (Liquid mixture 2); method: Vibrating tube method
Temperature, K	Mass density, kg/m3	uncertainty
278.15	843.2	.01
288.15	836.12	.01
298.15	829.21	.01
308.15	822.26	.01
318.15	814.67	.01
328.15	808.36	.01
338.15	801.55	.01
348.15	791.23	.01
358.15	787.64	.01

System: 1-pentanol + water; phases: Liquid mixture 1, Liquid mixture 2
Fixed: Pressure, kPa = 101
Property: Interfacial tension, N/m (Liquid mixture 1); method: Drop volume
Temperature, K	Interfacial tension, N/m	uncertainty
278.15	.00396	.00001
288.15	.00424	.00001
298.15	.00435	.00001
308.15	.0045	.00001
318.15	.00451	.00001
328.15	.00443	.00001
338.15	.00437	.00001
348.15	.00421	.00001
358.15	.00394	.00001

System: 1-hexanol + water; phases: Liquid mixture 1, Liquid mixture 2
Fixed: Pressure, kPa = 101
Property: Mass density, kg/m3 (Liquid mixture 1); method: Vibrating tube method
Temperature, K	Mass density, kg/m3	uncertainty
278.15	999.08	.01
288.15	998.19	.01
298.15	996.02	.01
308.15	993.06	.01
318.15	989.39	.01
328.15	984.98	.01
338.15	980.01	.01
348.15	974.61	.01

System: 1-hexanol + water; phases: Liquid mixture 2, Liquid mixture 1
Fixed: Pressure, kPa = 101
Property: Mass density, kg/m3 (Liquid mixture 2); method: Vibrating tube method
Temperature, K	Mass density, kg/m3	uncertainty
278.15	841.2	.01
288.15	834.09	.01
298.15	827.19	.01
308.15	827.19	.01
318.15	820.19	.01
328.15	813.29	.01
338.15	805.89	.01
348.15	798.92	.01

System: 1-hexanol + water; phases: Liquid mixture 1, Liquid mixture 2
Fixed: Pressure, kPa = 101
Property: Interfacial tension, N/m (Liquid mixture 1); method: Drop volume
Temperature, K	Interfacial tension, N/m	uncertainty
278.15	.00577	.00001
288.15	.00606	.00001
298.15	.00629	.00001
308.15	.00616	.00001
318.15	.00618	.00001
328.15	.00629	.00001
338.15	.00614	.00001
348.15	.006	.00001

System: 1-heptanol + water; phases: Liquid mixture 1, Liquid mixture 2
Fixed: Pressure, kPa = 101
Property: Mass density, kg/m3 (Liquid mixture 1); method: Vibrating tube method
Temperature, K	Mass density, kg/m3	uncertainty
278.15	999.96	.01
288.15	998.89	.01
298.15	996.76	.01
308.15	993.75	.01
318.15	990.03	.01
328.15	985.69	.01
338.15	980.78	.01
348.15	975.4	.01
358.15	969.6	.01

System: 1-heptanol + water; phases: Liquid mixture 2, Liquid mixture 1
Fixed: Pressure, kPa = 101
Property: Mass density, kg/m3 (Liquid mixture 2); method: Vibrating tube method
Temperature, K	Mass density, kg/m3	uncertainty
278.15	841.73	.01
288.15	834.66	.01
298.15	827.74	.01
308.15	820.68	.01
318.15	813.66	.01
328.15	806.49	.01
338.15	798.24	.01
348.15	790.01	.01
358.15	781.84	.01

System: 1-heptanol + water; phases: Liquid mixture 1, Liquid mixture 2
Fixed: Pressure, kPa = 101
Property: Interfacial tension, N/m (Liquid mixture 1); method: Drop volume
Temperature, K	Interfacial tension, N/m	uncertainty
278.15	.00661	.00001
288.15	.00709	.00001
298.15	.0074	.00001
308.15	.00756	.00001
318.15	.00773	.00001
328.15	.00796	.00001
338.15	.0079	.00001
348.15	.00782	.00001
358.15	.00774	.00001

System: 1-octanol + water; phases: Liquid mixture 1, Liquid mixture 2
Fixed: Pressure, kPa = 101
Property: Mass density, kg/m3 (Liquid mixture 1); method: Vibrating tube method
Temperature, K	Mass density, kg/m3	uncertainty
278.15	1000.17	.01
288.15	999.11	.01
298.15	996.99	.01
308.15	993.92	.01
318.15	990.24	.01
328.15	985.89	.01
338.15	981.05	.01

System: 1-octanol + water; phases: Liquid mixture 2, Liquid mixture 1
Fixed: Pressure, kPa = 101
Property: Mass density, kg/m3 (Liquid mixture 2); method: Vibrating tube method
Temperature, K	Mass density, kg/m3	uncertainty
278.15	843.22	.01
288.15	836	.01
298.15	829	.01
308.15	821.93	.01
318.15	814.96	.01
328.15	807.8	.01
338.15	800.83	.01

System: 1-octanol + water; phases: Liquid mixture 1, Liquid mixture 2
Fixed: Pressure, kPa = 101
Property: Interfacial tension, N/m (Liquid mixture 1); method: Drop volume
Temperature, K	Interfacial tension, N/m	uncertainty
278.15	.00699	.00001
288.15	.00753	.00001
298.15	.00797	.00001
308.15	.00841	.00001
318.15	.00862	.00001
328.15	.00867	.00001
338.15	.00881	.00001

System: tetrahydropyran + water; phases: Liquid mixture 1, Liquid mixture 2
Fixed: Pressure, kPa = 101
Property: Mass density, kg/m3 (Liquid mixture 1); method: Vibrating tube method
Temperature, K	Mass density, kg/m3	uncertainty
278.15	997.68	.01
288.15	995.72	.01
298.15	993.18	.01
308.15	990.25	.01
318.15	986.57	.01
328.15	982.26	.01
338.15	977.44	.01

System: tetrahydropyran + water; phases: Liquid mixture 2, Liquid mixture 1
Fixed: Pressure, kPa = 101
Property: Mass density, kg/m3 (Liquid mixture 2); method: Vibrating tube method
Temperature, K	Mass density, kg/m3	uncertainty
278.15	903.11	.01
288.15	893.25	.01
298.15	883.58	.01
308.15	873.71	.01
318.15	863.97	.01
328.15	854.1	.01
338.15	844.19	.01

System: tetrahydropyran + water; phases: Liquid mixture 1, Liquid mixture 2
Fixed: Pressure, kPa = 101
Property: Interfacial tension, N/m (Liquid mixture 1); method: Drop volume
Temperature, K	Interfacial tension, N/m	uncertainty
278.15	.00464	.00001
288.15	.00519	.00001
298.15	.00578	.00001
308.15	.00635	.00001
318.15	.00675	.00001
328.15	.00728	.00001
338.15	.00745	.00001

System: methyl tert-butyl ether + water; phases: Liquid mixture 1, Liquid mixture 2
Fixed: Pressure, kPa = 101
Property: Mass density, kg/m3 (Liquid mixture 1); method: Vibrating tube method
Temperature, K	Mass density, kg/m3	uncertainty
278.15	990.93	.01
288.15	990.41	.01
298.15	990.58	.01
308.15	989.23	.01
318.15	986.96	.01

System: methyl tert-butyl ether + water; phases: Liquid mixture 2, Liquid mixture 1
Fixed: Pressure, kPa = 101
Property: Mass density, kg/m3 (Liquid mixture 2); method: Vibrating tube method
Temperature, K	Mass density, kg/m3	uncertainty
278.15	760.48	.01
288.15	750.41	.01
298.15	740.17	.01
308.15	729.82	.01
318.15	719.35	.01

System: methyl tert-butyl ether + water; phases: Liquid mixture 1, Liquid mixture 2
Fixed: Pressure, kPa = 101
Property: Interfacial tension, N/m (Liquid mixture 1); method: Drop volume
Temperature, K	Interfacial tension, N/m	uncertainty
278.15	.0078	.00001
288.15	.00883	.00001
298.15	.0098	.00001
308.15	.0108	.00001
318.15	.0117	.00001

System: tert-amyl methyl ether + water; phases: Liquid mixture 1, Liquid mixture 2
Fixed: Pressure, kPa = 101
Property: Mass density, kg/m3 (Liquid mixture 1); method: Vibrating tube method
Temperature, K	Mass density, kg/m3	uncertainty
278.15	997.06	.01
288.15	996.93	.01
298.15	995.49	.01
308.15	992.83	.01
318.15	989.28	.01
328.15	985.19	.01
338.15	979.14	.01

System: tert-amyl methyl ether + water; phases: Liquid mixture 2, Liquid mixture 1
Fixed: Pressure, kPa = 101
Property: Mass density, kg/m3 (Liquid mixture 2); method: Vibrating tube method
Temperature, K	Mass density, kg/m3	uncertainty
278.15	786.3	.01
288.15	777.01	.01
298.15	767.6	.01
308.15	758.19	.01
318.15	748.67	.01
328.15	739.12	.01
338.15	729.32	.01

System: tert-amyl methyl ether + water; phases: Liquid mixture 1, Liquid mixture 2
Fixed: Pressure, kPa = 101
Property: Interfacial tension, N/m (Liquid mixture 1); method: Drop volume
Temperature, K	Interfacial tension, N/m	uncertainty
278.15	.0122	.00001
288.15	.0132	.00001
298.15	.0145	.00001
308.15	.0155	.00001
318.15	.0163	.00001
328.15	.017	.00001
338.15	.0175	.00001

System: ethyl tert-butyl ether + water; phases: Liquid mixture 1, Liquid mixture 2
Fixed: Pressure, kPa = 101
Property: Mass density, kg/m3 (Liquid mixture 1); method: Vibrating tube method
Temperature, K	Mass density, kg/m3	uncertainty
278.15	996.11	.01
288.15	996.17	.01
298.15	994.97	.01
308.15	992.35	.01
318.15	989.07	.01
328.15	984.73	.01

System: ethyl tert-butyl ether + water; phases: Liquid mixture 2, Liquid mixture 1
Fixed: Pressure, kPa = 101
Property: Mass density, kg/m3 (Liquid mixture 2); method: Vibrating tube method
Temperature, K	Mass density, kg/m3	uncertainty
278.15	759.85	.01
288.15	747.67	.01
298.15	737.63	.01
308.15	727.42	.01
318.15	717.17	.01
328.15	706.84	.01

System: ethyl tert-butyl ether + water; phases: Liquid mixture 1, Liquid mixture 2
Fixed: Pressure, kPa = 101
Property: Interfacial tension, N/m (Liquid mixture 1); method: Drop volume
Temperature, K	Interfacial tension, N/m	uncertainty
278.15	.014	.00001
288.15	.0155	.00001
298.15	.0166	.00001
308.15	.0178	.00001
318.15	.0187	.00001
328.15	.0193	.00001

System: diisopropyl ether + water; phases: Liquid mixture 1, Liquid mixture 2
Fixed: Pressure, kPa = 101
Property: Mass density, kg/m3 (Liquid mixture 1); method: Vibrating tube method
Temperature, K	Mass density, kg/m3	uncertainty
278.15	997.14	.01
288.15	996.71	.01
298.15	995.65	.01
308.15	992.99	.01
318.15	989.54	.01
328.15	985.5	.01

System: diisopropyl ether + water; phases: Liquid mixture 2, Liquid mixture 1
Fixed: Pressure, kPa = 101
Property: Mass density, kg/m3 (Liquid mixture 2); method: Vibrating tube method
Temperature, K	Mass density, kg/m3	uncertainty
278.15	741.46	.01
288.15	731.23	.01
298.15	720.94	.01
308.15	710.53	.01
318.15	699.96	.01
328.15	689.26	.01

System: diisopropyl ether + water; phases: Liquid mixture 1, Liquid mixture 2
Fixed: Pressure, kPa = 101
Property: Interfacial tension, N/m (Liquid mixture 1); method: Drop volume
Temperature, K	Interfacial tension, N/m	uncertainty
278.15	.0152	.00001
288.15	.0163	.00001
298.15	.0177	.00001
308.15	.0187	.00001
318.15	.0197	.00001
328.15	.0211	.00001
