Measured thermophysical data. Determination and correlation of liquid-liquid equilibrium data for the dichloromethane + water + N, N-dimethylacetamide + NaCl system
Source: Fluid Phase Equilib., 2015, 10.1016/j.fluid.2015.02.022
Compound 1: dichloromethane, CH2Cl2, purity 99.5%
Compound 2: N,N-dimethylacetamide, C4H9NO, purity 99.8%
Compound 3: sodium chloride, ClNa, purity 99.5%
Compound 4: water, H2O, purity 99.9%

System: dichloromethane + N,N-dimethylacetamide + water; phases: Liquid mixture 2, Liquid mixture 1
Property: Mass fraction of water (Liquid mixture 2); method: Chromatography
Property: Mass fraction of water (Liquid mixture 1); method: Chromatography
Property: Mass fraction of dichloromethane (Liquid mixture 1); method: Chromatography
Temperature, K	Pressure, kPa	Mass fraction of dichloromethane	Mass fraction of water	uncertainty	Mass fraction of water	uncertainty	Mass fraction of dichloromethane	uncertainty
298.15	100	.8769	.056	.0022	.85	.0022	.0952	.0022
298.15	100	.7539	.0715	.0022	.7738	.0022	.0854	.0022
298.15	100	.6915	.0779	.0022	.7192	.0022	.0787	.0022
298.15	100	.6261	.0933	.0022	.659	.0022	.0833	.0022
298.15	100	.5054	.1329	.0022	.5848	.0022	.0998	.0022
298.15	100	.8233	.0634	.0022	.8114	.0022	.0897	.0022

System: dichloromethane + N,N-dimethylacetamide + water; phases: Liquid mixture 2, Liquid mixture 1
Property: Mass fraction of water (Liquid mixture 2); method: Chromatography
Property: Mass fraction of water (Liquid mixture 1); method: Chromatography
Property: Mass fraction of dichloromethane (Liquid mixture 1); method: Chromatography
Temperature, K	Pressure, kPa	Mass fraction of dichloromethane	Mass fraction of water	uncertainty	Mass fraction of water	uncertainty	Mass fraction of dichloromethane	uncertainty
308.15	100	.3657	.2381	.0022	.5418	.0022	.1228	.0022
308.15	100	.4351	.212	.0022	.6136	.0022	.1081	.0022
308.15	100	.6928	.1433	.0022	.7961	.0022	.0924	.0022
308.15	100	.7907	.1263	.0022	.8504	.0022	.0908	.0022
308.15	100	.6157	.1563	.0022	.7411	.0022	.0928	.0022
308.15	100	.5187	.1847	.0022	.6766	.0022	.0991	.0022
