Measured thermophysical data. Liquid-liquid equilibria for ternary mixtures of methyl tert-amyl ether + methanol (or ethanol) + imidazolium-based ionic liquids at 298.15 K
Source: Fluid Phase Equilib., 2012, 10.1016/j.fluid.2011.09.011
Compound 1: tert-amyl methyl ether, C6H14O, purity 99.9%
Compound 2: [BMIM][BF4], C8H15BF4N2, purity 95%
Compound 3: 1-ethyl-3-methylimidazolium ethyl sulfate, C8H16N2O4S, purity 95%
Compound 4: methanol, CH4O, purity 99.9%
Compound 5: ethanol, C2H6O, purity 99.9%

System: [BMIM][BF4]; phases: Liquid
Fixed: Pressure, kPa = 101.325
Property: Mass density, kg/m3 (Liquid); method: Vibrating tube method
Temperature, K	Mass density, kg/m3	uncertainty
298.15	1203.76	.005

System: 1-ethyl-3-methylimidazolium ethyl sulfate; phases: Liquid
Fixed: Pressure, kPa = 101.325
Property: Mass density, kg/m3 (Liquid); method: Vibrating tube method
Temperature, K	Mass density, kg/m3	uncertainty
298.15	1236.55	.005

System: methanol + tert-amyl methyl ether + [BMIM][BF4]; phases: Liquid mixture 1, Liquid mixture 2
Fixed: Pressure, kPa = 101
Property: Mole fraction of tert-amyl methyl ether (Liquid mixture 1); method: Chromatography
Property: Mole fraction of methanol (Liquid mixture 2); method: Chromatography
Property: Mole fraction of tert-amyl methyl ether (Liquid mixture 2); method: Chromatography
Temperature, K	Mole fraction of methanol	Mole fraction of tert-amyl methyl ether	uncertainty	Mole fraction of methanol	uncertainty	Mole fraction of tert-amyl methyl ether	uncertainty
298.15	0	.999	.005	0	.005	.102	.005
298.15	.022	.978	.005	.08	.005	.1	.005
298.15	.067	.932	.005	.202	.005	.098	.005
298.15	.171	.829	.005	.362	.005	.1	.005
298.15	.295	.702	.005	.465	.005	.099	.005
298.15	.428	.57	.005	.544	.005	.097	.005
298.15	.532	.463	.005	.612	.005	.099	.005
298.15	.598	.394	.005	.659	.005	.104	.005
298.15	.713	.262	.005	.735	.005	.125	.005

System: ethanol + tert-amyl methyl ether + [BMIM][BF4]; phases: Liquid mixture 1, Liquid mixture 2
Fixed: Pressure, kPa = 101
Property: Mole fraction of tert-amyl methyl ether (Liquid mixture 1); method: Chromatography
Property: Mole fraction of ethanol (Liquid mixture 2); method: Chromatography
Property: Mole fraction of tert-amyl methyl ether (Liquid mixture 2); method: Chromatography
Temperature, K	Mole fraction of ethanol	Mole fraction of tert-amyl methyl ether	uncertainty	Mole fraction of ethanol	uncertainty	Mole fraction of tert-amyl methyl ether	uncertainty
298.15	.054	.946	.005	.081	.005	.1	.005
298.15	.172	.823	.005	.196	.005	.103	.005
298.15	.274	.725	.005	.281	.005	.1	.005
298.15	.372	.623	.005	.335	.005	.102	.005
298.15	.535	.463	.005	.417	.005	.091	.005
298.15	.664	.331	.005	.481	.005	.089	.005
298.15	.777	.206	.005	.591	.005	.078	.005
298.15	.84	.129	.005	.663	.005	.064	.005
298.15	.861	.103	.005	.693	.005	.056	.005

System: methanol + tert-amyl methyl ether + 1-ethyl-3-methylimidazolium ethyl sulfate; phases: Liquid mixture 1, Liquid mixture 2
Fixed: Pressure, kPa = 101
Property: Mole fraction of tert-amyl methyl ether (Liquid mixture 1); method: Chromatography
Property: Mole fraction of methanol (Liquid mixture 2); method: Chromatography
Property: Mole fraction of tert-amyl methyl ether (Liquid mixture 2); method: Chromatography
Temperature, K	Mole fraction of methanol	Mole fraction of tert-amyl methyl ether	uncertainty	Mole fraction of methanol	uncertainty	Mole fraction of tert-amyl methyl ether	uncertainty
298.15	0	.999	.005	0	.005	.052	.005
298.15	.003	.993	.005	.124	.005	.053	.005
298.15	.01	.987	.005	.253	.005	.053	.005
298.15	.025	.974	.005	.341	.005	.054	.005
298.15	.04	.956	.005	.401	.005	.056	.005
298.15	.089	.91	.005	.535	.005	.06	.005
298.15	.166	.833	.005	.631	.005	.063	.005
298.15	.287	.71	.005	.707	.005	.087	.005
298.15	.371	.628	.005	.748	.005	.101	.005
298.15	.487	.503	.005	.753	.005	.122	.005
298.15	.568	.423	.005	.759	.005	.161	.005

System: ethanol + tert-amyl methyl ether + 1-ethyl-3-methylimidazolium ethyl sulfate; phases: Liquid mixture 1, Liquid mixture 2
Fixed: Pressure, kPa = 101
Property: Mole fraction of tert-amyl methyl ether (Liquid mixture 1); method: Chromatography
Property: Mole fraction of ethanol (Liquid mixture 2); method: Chromatography
Property: Mole fraction of tert-amyl methyl ether (Liquid mixture 2); method: Chromatography
Temperature, K	Mole fraction of ethanol	Mole fraction of tert-amyl methyl ether	uncertainty	Mole fraction of ethanol	uncertainty	Mole fraction of tert-amyl methyl ether	uncertainty
298.15	.01	.989	.005	.112	.005	.056	.005
298.15	.03	.968	.005	.217	.005	.058	.005
298.15	.08	.916	.005	.362	.005	.073	.005
298.15	.137	.856	.005	.468	.005	.095	.005
298.15	.252	.74	.005	.568	.005	.147	.005
298.15	.382	.594	.005	.594	.005	.227	.005
298.15	.423	.547	.005	.589	.005	.256	.005
