Measured thermophysical data. Volumetric properties of ionic liquid 1,3-dimethylimidazolium methyl sulfate + molecular solvents at T = (298.15 - 328.15) K
Source: Fluid Phase Equilib., 2010, 10.1016/j.fluid.2010.01.002
Compound 1: 1-methylimidazole, C4H6N2, purity 99%
Compound 2: sulfuric acid, dimethyl ester, C2H6O4S, purity 99%
Compound 3: toluene, C7H8, purity 99%
Compound 4: dimethyl sulfoxide, C2H6OS, purity 99.5%
Compound 5: dimethylformamide, C3H7NO, purity 99.5%
Compound 6: acetonitrile, C2H3N, purity 99.8%
Compound 7: methanol, CH4O, purity 99.8%
Compound 8: 1,3-dimethylimidazolium methylsulfate, C6H12N2O4S
Compound 9: water, H2O, purity 99.8%

System: dimethyl sulfoxide; phases: Liquid
Fixed: Pressure, kPa = 101.325
Property: Mass density, kg/m3 (Liquid); method: Vibrating tube method
Temperature, K	Mass density, kg/m3	uncertainty
298.15	1095.27	.01
308.15	1085.18	.01
318.15	1075.24	.01
328.15	1065.16	.01

System: dimethyl sulfoxide; phases: Liquid
Fixed: Pressure, kPa = 101.325
Property: Refractive index (Na D-line) (Liquid); method: Standard Abbe refractometry
Temperature, K	Refractive index (Na D-line)	uncertainty
298.15	1.4737	.0001
308.15	1.4701	.0001
318.15	1.4668	.0001
328.15	1.462	.0001

System: dimethyl sulfoxide; phases: Liquid
Fixed: Pressure, kPa = 101.325
Property: Viscosity, Pa*s (Liquid); method: Capillary tube (Ostwald; Ubbelohde) method
Temperature, K	Viscosity, Pa*s	uncertainty
298.15	.001979	.000002
308.15	.001622	.000002
318.15	.0013814	.000002
328.15	.001207	.000002

System: dimethylformamide; phases: Liquid
Fixed: Pressure, kPa = 101.325
Property: Mass density, kg/m3 (Liquid); method: Vibrating tube method
Temperature, K	Mass density, kg/m3	uncertainty
298.15	943.8	.01
308.15	934.45	.01
318.15	924.75	.01
328.15	914.9	.01

System: dimethylformamide; phases: Liquid
Fixed: Pressure, kPa = 101.325
Property: Refractive index (Na D-line) (Liquid); method: Standard Abbe refractometry
Temperature, K	Refractive index (Na D-line)	uncertainty
298.15	1.4267	.0001
308.15	1.4225	.0001
318.15	1.418	.0001
328.15	1.4144	.0001

System: dimethylformamide; phases: Liquid
Fixed: Pressure, kPa = 101.325
Property: Viscosity, Pa*s (Liquid); method: Capillary tube (Ostwald; Ubbelohde) method
Temperature, K	Viscosity, Pa*s	uncertainty
298.15	.0008605	.000002
308.15	.0007712	.000002
318.15	.0006975	.000002
328.15	.0006374	.000002

System: acetonitrile; phases: Liquid
Fixed: Pressure, kPa = 101.325
Property: Mass density, kg/m3 (Liquid); method: Vibrating tube method
Temperature, K	Mass density, kg/m3	uncertainty
298.15	776.59	.01
308.15	765.76	.01
318.15	754.67	.01
328.15	743.6	.01

System: acetonitrile; phases: Liquid
Fixed: Pressure, kPa = 101.325
Property: Refractive index (Na D-line) (Liquid); method: Standard Abbe refractometry
Temperature, K	Refractive index (Na D-line)	uncertainty
298.15	1.3411	.0001
308.15	1.3365	.0001
318.15	1.3327	.0001
328.15	1.3259	.0001

System: acetonitrile; phases: Liquid
Fixed: Pressure, kPa = 101.325
Property: Viscosity, Pa*s (Liquid); method: Capillary tube (Ostwald; Ubbelohde) method
Temperature, K	Viscosity, Pa*s	uncertainty
298.15	.0003431	.000002
308.15	.0003171	.000002
318.15	.0002918	.000002
328.15	.000268	.000002

System: methanol; phases: Liquid
Fixed: Pressure, kPa = 101.325
Property: Mass density, kg/m3 (Liquid); method: Vibrating tube method
Temperature, K	Mass density, kg/m3	uncertainty
298.15	786.53	.01
308.15	777.09	.01
318.15	767.48	.01
328.15	757.75	.01

System: methanol; phases: Liquid
Fixed: Pressure, kPa = 101.325
Property: Refractive index (Na D-line) (Liquid); method: Standard Abbe refractometry
Temperature, K	Refractive index (Na D-line)	uncertainty
298.15	1.3272	.0001
308.15	1.3232	.0001
318.15	1.3185	.0001
328.15	1.3158	.0001

System: methanol; phases: Liquid
Fixed: Pressure, kPa = 101.325
Property: Viscosity, Pa*s (Liquid); method: Capillary tube (Ostwald; Ubbelohde) method
Temperature, K	Viscosity, Pa*s	uncertainty
298.15	.0008699	.000002
308.15	.0007287	.000002
318.15	.0005962	.000002
328.15	.0004792	.000002

System: 1,3-dimethylimidazolium methylsulfate; phases: Liquid
Fixed: Pressure, kPa = 101.325
Property: Mass density, kg/m3 (Liquid); method: Vibrating tube method
Temperature, K	Mass density, kg/m3	uncertainty
298.15	1341.52	.01
308.15	1334.05	.01
318.15	1324.8	.01
328.15	1320.61	.01

System: 1,3-dimethylimidazolium methylsulfate; phases: Liquid
Fixed: Pressure, kPa = 101.325
Property: Refractive index (Na D-line) (Liquid); method: Standard Abbe refractometry
Temperature, K	Refractive index (Na D-line)	uncertainty
298.15	1.481	.0001
308.15	1.4782	.0001
318.15	1.475	.0001
328.15	1.4732	.0001

System: 1,3-dimethylimidazolium methylsulfate; phases: Liquid
Fixed: Pressure, kPa = 101.325
Property: Viscosity, Pa*s (Liquid); method: Capillary tube (Ostwald; Ubbelohde) method
Temperature, K	Viscosity, Pa*s	uncertainty
298.15	.0721592	.000002
308.15	.0544155	.000002
318.15	.0317474	.000002
328.15	.0227539	.000002

System: water; phases: Liquid
Fixed: Pressure, kPa = 101.325
Property: Mass density, kg/m3 (Liquid); method: Vibrating tube method
Temperature, K	Mass density, kg/m3	uncertainty
298.15	997.04	.01
308.15	994.05	.01
318.15	990.24	.01
328.15	985.62	.01

System: water; phases: Liquid
Fixed: Pressure, kPa = 101.325
Property: Refractive index (Na D-line) (Liquid); method: Standard Abbe refractometry
Temperature, K	Refractive index (Na D-line)	uncertainty
298.15	1.3325	.0001
308.15	1.3313	.0001
318.15	1.3298	.0001
328.15	1.3282	.0001

System: water; phases: Liquid
Fixed: Pressure, kPa = 101.325
Property: Viscosity, Pa*s (Liquid); method: Capillary tube (Ostwald; Ubbelohde) method
Temperature, K	Viscosity, Pa*s	uncertainty
298.15	.0008949	.000002
308.15	.0007207	.000002
318.15	.0005962	.000002
328.15	.0005042	.000002

System: water + 1,3-dimethylimidazolium methylsulfate; phases: Liquid
Fixed: Pressure, kPa = 101
Property: Mass density, kg/m3 (Liquid); method: Vibrating tube method
Temperature, K	Molality, mol/kg of 1,3-dimethylimidazolium methylsulfate	Mass density, kg/m3	uncertainty
298.15	.0095	997.56	.01
298.15	.018	998.03	.01
298.15	.0236	998.32	.01
298.15	.0316	998.76	.01
298.15	.0414	999.29	.01
298.15	.0611	1000.34	.01
298.15	.0788	1001.28	.01
298.15	.0914	1001.94	.01
298.15	.1165	1003.24	.01
298.15	.1441	1004.65	.01
298.15	.1816	1006.53	.01
298.15	.2172	1008.25	.01
298.15	.2724	1010.92	.01
298.15	.3964	1016.79	.01
298.15	.4557	1019.55	.01
298.15	.5756	1024.98	.01
298.15	.7108	1030.77	.01
298.15	1.8259	1071.65	.01
308.15	.0095	994.57	.01
308.15	.018	995.02	.01
308.15	.0236	995.31	.01
308.15	.0316	995.73	.01
308.15	.0414	996.24	.01
308.15	.0611	997.25	.01
308.15	.0788	998.16	.01
308.15	.0914	998.8	.01
308.15	.1165	1000.06	.01
308.15	.1441	1001.43	.01
308.15	.1816	1003.27	.01
308.15	.2172	1004.99	.01
308.15	.2724	1007.59	.01
308.15	.3964	1013.25	.01
308.15	.4557	1015.89	.01
308.15	.5756	1021.08	.01
308.15	.7108	1026.7	.01
308.15	1.8259	1065.12	.01
318.15	.0095	990.75	.01
318.15	.018	991.2	.01
318.15	.0236	991.48	.01
318.15	.0316	991.89	.01
318.15	.0414	992.39	.01
318.15	.0611	993.38	.01
318.15	.0788	994.27	.01
318.15	.0914	994.9	.01
318.15	.1165	996.14	.01
318.15	.1441	997.49	.01
318.15	.1816	999.3	.01
318.15	.2172	1001	.01
318.15	.2724	1003.6	.01
318.15	.3964	1009.26	.01
318.15	.4557	1011.88	.01
318.15	.5756	1017.04	.01
318.15	.7108	1022.63	.01
318.15	1.8259	1061.7	.01
328.15	.0095	986.12	.01
328.15	.018	986.56	.01
328.15	.0236	986.84	.01
328.15	.0316	987.25	.01
328.15	.0414	987.74	.01
328.15	.0611	988.72	.01
328.15	.0788	989.59	.01
328.15	.0914	990.2	.01
328.15	.1165	991.43	.01
328.15	.1441	992.77	.01
328.15	.1816	994.58	.01
328.15	.2172	996.25	.01
328.15	.2724	998.8	.01
328.15	.3964	1004.4	.01
328.15	.4557	1006.99	.01
328.15	.5756	1012.19	.01
328.15	.7108	1017.83	.01
328.15	1.8259	1057	.01

System: methanol + 1,3-dimethylimidazolium methylsulfate; phases: Liquid
Fixed: Pressure, kPa = 101
Property: Mass density, kg/m3 (Liquid); method: Vibrating tube method
Temperature, K	Molality, mol/kg of 1,3-dimethylimidazolium methylsulfate	Mass density, kg/m3	uncertainty
298.15	.0108	787.65	.01
298.15	.0199	788.47	.01
298.15	.0341	789.69	.01
298.15	.0419	790.3	.01
298.15	.0531	791.11	.01
298.15	.0711	792.35	.01
298.15	.0929	794.09	.01
298.15	.1212	796.29	.01
298.15	.1679	799.9	.01
298.15	.2084	802.98	.01
298.15	.2504	806.12	.01
298.15	.2973	809.59	.01
298.15	.3949	816.69	.01
298.15	.4965	823.95	.01
298.15	.5976	831	.01
298.15	.7303	839.93	.01
298.15	.9907	856.57	.01
308.15	.0108	778.14	.01
308.15	.0199	778.98	.01
308.15	.0341	780.24	.01
308.15	.0419	780.9	.01
308.15	.0531	781.85	.01
308.15	.0711	783.26	.01
308.15	.0929	784.9	.01
308.15	.1212	787.16	.01
308.15	.1679	790.82	.01
308.15	.2084	793.97	.01
308.15	.2504	797.15	.01
308.15	.2973	800.65	.01
308.15	.3949	807.86	.01
308.15	.4965	815.03	.01
308.15	.5976	822.1	.01
308.15	.7303	830.93	.01
308.15	.9907	847.45	.01
318.15	.0108	768.55	.01
318.15	.0199	769.42	.01
318.15	.0341	770.71	.01
318.15	.0419	771.38	.01
318.15	.0531	772.32	.01
318.15	.0711	773.6	.01
318.15	.0929	775.34	.01
318.15	.1212	777.61	.01
318.15	.1679	781.31	.01
318.15	.2084	784.46	.01
318.15	.2504	787.7	.01
318.15	.2973	791.16	.01
318.15	.3949	798.36	.01
318.15	.4965	805.55	.01
318.15	.5976	812.65	.01
318.15	.7303	821.45	.01
318.15	.9907	838.09	.01
328.15	.0108	758.82	.01
328.15	.0199	759.7	.01
328.15	.0341	761.02	.01
328.15	.0419	761.68	.01
328.15	.0531	762.63	.01
328.15	.0711	764.11	.01
328.15	.0929	765.65	.01
328.15	.1212	767.99	.01
328.15	.1679	771.8	.01
328.15	.2084	775.01	.01
328.15	.2504	778.32	.01
328.15	.2973	781.85	.01
328.15	.3949	789.21	.01
328.15	.4965	796.68	.01
328.15	.5976	803.73	.01
328.15	.7303	812.4	.01
328.15	.9907	828.74	.01

System: acetonitrile + 1,3-dimethylimidazolium methylsulfate; phases: Liquid
Fixed: Pressure, kPa = 101
Property: Mass density, kg/m3 (Liquid); method: Vibrating tube method
Temperature, K	Molality, mol/kg of 1,3-dimethylimidazolium methylsulfate	Mass density, kg/m3	uncertainty
298.15	.0154	778.02	.01
298.15	.0262	778.92	.01
298.15	.0367	779.78	.01
298.15	.0442	780.39	.01
298.15	.0552	781.25	.01
298.15	.0697	782.39	.01
298.15	.1092	785.54	.01
298.15	.1516	788.85	.01
298.15	.2159	793.88	.01
298.15	.2981	799.99	.01
298.15	.4347	809.98	.01
298.15	.5442	817.8	.01
298.15	.8609	839.07	.01
308.15	.0154	767.2	.01
308.15	.0262	768.15	.01
308.15	.0367	769.04	.01
308.15	.0442	769.64	.01
308.15	.0552	770.6	.01
308.15	.0697	771.79	.01
308.15	.1092	775.06	.01
308.15	.1516	778.45	.01
308.15	.2159	783.51	.01
308.15	.2981	789.92	.01
308.15	.4347	799.82	.01
308.15	.5442	807.73	.01
308.15	.8609	828.64	.01
318.15	.0154	756.08	.01
318.15	.0262	757.02	.01
318.15	.0367	757.94	.01
318.15	.0442	758.56	.01
318.15	.0552	759.47	.01
318.15	.0697	760.65	.01
318.15	.1092	763.89	.01
318.15	.1516	767.29	.01
318.15	.2159	772.5	.01
318.15	.2981	779.03	.01
318.15	.4347	788.98	.01
318.15	.5442	797.07	.01
318.15	.8609	818.22	.01
328.15	.0154	745.07	.01
328.15	.0262	746.08	.01
328.15	.0367	746.91	.01
328.15	.0442	747.53	.01
328.15	.0552	748.49	.01
328.15	.0697	749.74	.01
328.15	.1092	753.13	.01
328.15	.1516	756.65	.01
328.15	.2159	761.83	.01
328.15	.2981	768.5	.01
328.15	.4347	778.24	.01
328.15	.5442	786.34	.01
328.15	.8609	808.33	.01

System: dimethyl sulfoxide + 1,3-dimethylimidazolium methylsulfate; phases: Liquid
Fixed: Pressure, kPa = 101
Property: Mass density, kg/m3 (Liquid); method: Vibrating tube method
Temperature, K	Molality, mol/kg of 1,3-dimethylimidazolium methylsulfate	Mass density, kg/m3	uncertainty
298.15	.0129	1095.83	.01
298.15	.0148	1095.95	.01
298.15	.0289	1096.8	.01
298.15	.0374	1097.18	.01
298.15	.0433	1097.5	.01
298.15	.0517	1097.95	.01
298.15	.0632	1098.58	.01
298.15	.0897	1100	.01
298.15	.1221	1101.67	.01
298.15	.1501	1103.05	.01
298.15	.1878	1104.92	.01
298.15	.2351	1107.24	.01
298.15	.2852	1109.64	.01
298.15	.3822	1114	.01
298.15	.5216	1120.2	.01
298.15	.8153	1132.05	.01
308.15	.0129	1085.98	.01
308.15	.0148	1086.09	.01
308.15	.0289	1086.89	.01
308.15	.0374	1087.35	.01
308.15	.0433	1087.65	.01
308.15	.0517	1088.1	.01
308.15	.0632	1088.71	.01
308.15	.0897	1090.12	.01
308.15	.1221	1091.81	.01
308.15	.1501	1093.21	.01
308.15	.1878	1095.1	.01
308.15	.2351	1097.42	.01
308.15	.2852	1099.85	.01
308.15	.3822	1104.38	.01
308.15	.5216	1110.59	.01
308.15	.8153	1122.58	.01
318.15	.0129	1075.96	.01
318.15	.0148	1076.07	.01
318.15	.0289	1076.88	.01
318.15	.0374	1077.34	.01
318.15	.0433	1077.66	.01
318.15	.0517	1078.12	.01
318.15	.0632	1078.72	.01
318.15	.0897	1080.15	.01
318.15	.1221	1081.86	.01
318.15	.1501	1083.28	.01
318.15	.1878	1085.22	.01
318.15	.2351	1087.6	.01
318.15	.2852	1090.06	.01
318.15	.3822	1094.63	.01
318.15	.5216	1100.91	.01
318.15	.8153	1113.1	.01
328.15	.0129	1065.92	.01
328.15	.0148	1066.03	.01
328.15	.0289	1066.84	.01
328.15	.0374	1067.32	.01
328.15	.0433	1067.64	.01
328.15	.0517	1068.11	.01
328.15	.0632	1068.74	.01
328.15	.0897	1070.19	.01
328.15	.1221	1071.93	.01
328.15	.1501	1073.4	.01
328.15	.1878	1075.36	.01
328.15	.2351	1077.78	.01
328.15	.2852	1080.29	.01
328.15	.3822	1084.97	.01
328.15	.5216	1091.34	.01
328.15	.8153	1103.75	.01

System: dimethylformamide + 1,3-dimethylimidazolium methylsulfate; phases: Liquid
Fixed: Pressure, kPa = 101
Property: Mass density, kg/m3 (Liquid); method: Vibrating tube method
Temperature, K	Molality, mol/kg of 1,3-dimethylimidazolium methylsulfate	Mass density, kg/m3	uncertainty
298.15	.0143	945.09	.01
298.15	.0192	945.45	.01
298.15	.0305	946.29	.01
298.15	.0455	947.35	.01
298.15	.06	948.34	.01
298.15	.0821	949.86	.01
298.15	.1125	951.98	.01
298.15	.1679	955.78	.01
298.15	.2459	961	.01
298.15	.3069	964.96	.01
298.15	.6259	984.18	.01
308.15	.0143	935.57	.01
308.15	.0192	935.93	.01
308.15	.0305	936.8	.01
308.15	.0455	937.9	.01
308.15	.06	938.95	.01
308.15	.0821	940.49	.01
308.15	.1125	942.64	.01
308.15	.1679	946.48	.01
308.15	.2459	951.8	.01
308.15	.3069	955.78	.01
308.15	.6259	975.15	.01
318.15	.0143	925.94	.01
318.15	.0192	926.32	.01
318.15	.0305	927.22	.01
318.15	.0455	928.37	.01
318.15	.06	929.46	.01
318.15	.0821	930.98	.01
318.15	.1125	933.15	.01
318.15	.1679	937.03	.01
318.15	.2459	942.42	.01
318.15	.3069	946.45	.01
318.15	.6259	965.75	.01
328.15	.0143	916.21	.01
328.15	.0192	916.62	.01
328.15	.0305	917.63	.01
328.15	.0455	918.8	.01
328.15	.06	919.9	.01
328.15	.0821	921.44	.01
328.15	.1125	923.55	.01
328.15	.1679	927.44	.01
328.15	.2459	932.69	.01
328.15	.3069	936.8	.01
328.15	.6259	956.63	.01
