Measured thermophysical data. Compact apparatus for rapid measurement of high-pressure phase equilibria of carbon dioxide expanded liquids
Source: Fluid Phase Equilib., 2010, 10.1016/j.fluid.2009.12.030
Compound 1: carbon dioxide, CO2
Compound 2: methanol, CH4O
Compound 3: acetone, C3H6O
Compound 4: butanone, C4H8O
Compound 5: 4-methyl-2-pentanone, C6H12O

System: methanol + carbon dioxide; phases: Liquid, Gas
Property: Vapor or sublimation pressure, kPa (Liquid); method: synthetic method
Temperature, K	Mass fraction of carbon dioxide	Vapor or sublimation pressure, kPa	uncertainty
313.11	.208	3620	20
313.11	.209	3640	20
313.11	.276	4640	20
313.11	.311	5150	20
313.11	.323	5280	20
313.11	.35	5590	20
313.11	.435	6490	20
313.11	.447	6660	20
313.11	.549	7250	20
313.11	.574	7450	20
313.11	.591	7450	20
313.11	.698	7760	20
313.11	.775	7910	20
330.03	.447	8620	20
330.03	.574	9820	20
330.03	.698	10490	20
330.03	.775	10710	20

System: acetone + carbon dioxide; phases: Liquid, Gas
Property: Vapor or sublimation pressure, kPa (Liquid); method: synthetic method
Temperature, K	Mass fraction of carbon dioxide	Vapor or sublimation pressure, kPa	uncertainty
313.11	.287	1930	20
313.11	.41	2890	20
313.11	.445	3250	20
313.11	.514	3830	20
313.11	.606	4570	20
313.11	.691	5240	20
313.11	.78	6070	20
333.19	.287	2670	20
333.19	.41	4000	20
333.19	.445	4310	20
333.19	.573	5710	20
333.19	.699	7300	20
333.19	.807	8650	20
353.18	.287	3480	20
353.18	.41	5150	20
353.18	.445	5450	20
353.18	.573	7340	20
353.18	.699	9220	20
353.18	.807	10780	20

System: butanone + carbon dioxide; phases: Liquid, Gas
Property: Vapor or sublimation pressure, kPa (Liquid); method: synthetic method
Temperature, K	Mass fraction of carbon dioxide	Vapor or sublimation pressure, kPa	uncertainty
313.11	.322	2350	20
313.11	.448	3390	20
313.11	.481	3630	20
313.11	.551	4320	20
313.11	.633	4900	20
313.11	.727	5810	20
333.19	.322	3140	20
333.19	.448	4320	20
333.19	.551	5760	20
333.19	.633	6620	20
333.19	.727	7930	20
353.18	.322	3970	20
353.18	.448	5750	20
353.18	.551	7340	20
353.18	.633	8470	20
353.18	.727	9920	20

System: 4-methyl-2-pentanone + carbon dioxide; phases: Liquid, Gas
Property: Vapor or sublimation pressure, kPa (Liquid); method: synthetic method
Temperature, K	Mass fraction of carbon dioxide	Vapor or sublimation pressure, kPa	uncertainty
313.11	.334	2330	20
313.11	.464	3420	20
313.11	.592	4590	20
313.11	.711	5560	20
313.11	.811	6710	20
333.19	.334	3050	20
333.19	.464	4490	20
333.19	.592	6120	20
333.19	.711	7500	20
333.19	.811	9100	20
353.18	.334	3790	20
353.18	.464	5630	20
353.18	.592	7720	20
353.18	.711	9530	20
353.18	.811	11550	20
