Measured thermophysical data. Liquid liquid equilibrium of the ternary system water + acetic acid + sec-butyl acetate
Source: Fluid Phase Equilib., 2010, 10.1016/j.fluid.2010.01.005
Compound 1: water, H2O, purity 99.9%
Compound 2: ethanoic acid, C2H4O2, purity 99.8%
Compound 3: 1-methylpropyl ethanoate, C6H12O2, purity 99%

System: ethanoic acid + 1-methylpropyl ethanoate + water; phases: Liquid mixture 2, Liquid mixture 1
Property: Mole fraction of ethanoic acid (Liquid mixture 2); method: Chromatography
Property: Mole fraction of water (Liquid mixture 1); method: Chromatography
Property: Mole fraction of ethanoic acid (Liquid mixture 1); method: Chromatography
Temperature, K	Pressure, kPa	Mole fraction of water	Mole fraction of ethanoic acid	uncertainty	Mole fraction of water	uncertainty	Mole fraction of ethanoic acid	uncertainty
298.15	101.325	.9989	0	.0002	.0904	.0002	0	.0002
303.15	101.325	.9717	.0268	.0002	.1512	.0002	.0633	.0002
303.15	101.325	.9475	.0501	.0002	.1891	.0002	.1183	.0002
303.15	101.325	.9221	.0743	.0002	.241	.0002	.1685	.0002
303.15	101.325	.897	.0989	.0002	.2939	.0002	.2127	.0002
303.15	101.325	.8708	.1217	.0002	.3383	.0002	.2428	.0002
303.15	101.325	.845	.1451	.0002	.3921	.0002	.2642	.0002
303.15	101.325	.8028	.1766	.0002	.4657	.0002	.2779	.0002
308.15	101.325	.9991	0	.0002	.1053	.0002	0	.0002
308.15	101.325	.9699	.0286	.0002	.1577	.0002	.0684	.0002
308.15	101.325	.94	.0579	.0002	.2168	.0002	.1358	.0002
298.15	101.325	.9707	.0279	.0002	.1443	.0002	.066	.0002
308.15	101.325	.9097	.0868	.0002	.2723	.0002	.1942	.0002
308.15	101.325	.8846	.1093	.0002	.3143	.0002	.2259	.0002
308.15	101.325	.8578	.1316	.0002	.3923	.0002	.2593	.0002
308.15	101.325	.8073	.174	.0002	.4662	.0002	.2729	.0002
308.15	101.325	.7626	.2011	.0002	.5568	.0002	.2674	.0002
313.15	101.325	.9992	0	.0002	.1119	.0002	0	.0002
313.15	101.325	.968	.0309	.0002	.1661	.0002	.0706	.0002
313.15	101.325	.9384	.0593	.0002	.2263	.0002	.1418	.0002
313.15	101.325	.9163	.08	.0002	.2689	.0002	.184	.0002
313.15	101.325	.8829	.1121	.0002	.3292	.0002	.2294	.0002
298.15	101.325	.9416	.0563	.0002	.201	.0002	.1342	.0002
313.15	101.325	.8581	.1306	.0002	.3734	.0002	.2515	.0002
313.15	101.325	.8475	.1381	.0002	.3935	.0002	.2555	.0002
313.15	101.325	.773	.1949	.0002	.5238	.0002	.272	.0002
298.15	101.325	.9117	.0843	.0002	.2587	.0002	.1909	.0002
298.15	101.325	.8904	.1053	.0002	.2997	.0002	.2254	.0002
298.15	101.325	.848	.1402	.0002	.3873	.0002	.2624	.0002
298.15	101.325	.8197	.1633	.0002	.449	.0002	.2746	.0002
298.15	101.325	.7764	.1944	.0002	.5382	.0002	.2708	.0002
303.15	101.325	.9991	0	.0002	.1122	.0002	0	.0002
