Measured thermophysical data. Experiments on the continuous separation of gas mixtures via dissolution and hydrate formation in the presence of THF
Source: Fluid Phase Equilib., 2014, 10.1016/j.fluid.2013.11.002
Compound 1: tetrahydrofuran, C4H8O, purity 98%
Compound 2: water, H2O, purity 99.8%

System: water; phases: Liquid
Fixed: Pressure, kPa = 101.325
Property: Refractive index (Na D-line) (Liquid); method: Standard Abbe refractometry
Temperature, K	Refractive index (Na D-line)	uncertainty
298.15	1.3331	.0002
303.15	1.3326	.0002

System: tetrahydrofuran + water; phases: Liquid
Fixed: Pressure, kPa = 101
Property: Refractive index (Na D-line) (Liquid); method: Standard Abbe refractometry
Temperature, K	Mole fraction of tetrahydrofuran	Refractive index (Na D-line)	uncertainty
298.15	.01	1.3371	.0002
298.15	.02	1.3409	.0002
298.15	.03	1.3448	.0002
298.15	.04	1.348	.0002
298.15	.05	1.351	.0002
298.15	.06	1.354	.0002
298.15	1	1.4061	.0002
303.15	.01	1.3366	.0002
303.15	.02	1.3401	.0002
303.15	.03	1.3431	.0002
303.15	.04	1.347	.0002
303.15	.05	1.3496	.0002
303.15	.06	1.3521	.0002
303.15	1	1.4041	.0002
