Measured thermophysical data. Liquid liquid equilibria and vapor liquid equilibria for the binary  system of epichlorohydrin and water
Source: Fluid Phase Equilib., 2009, 10.1016/j.fluid.2009.05.009
Compound 1: 1-chloro-2,3-epoxypropane, C3H5ClO, purity 99.5%
Compound 2: water, H2O

System: 1-chloro-2,3-epoxypropane + water; phases: Liquid mixture 1, Liquid mixture 2
Property: Mole fraction of 1-chloro-2,3-epoxypropane (Liquid mixture 1); method: Chromatography
Temperature, K	Pressure, kPa	Mole fraction of 1-chloro-2,3-epoxypropane	uncertainty
293.15	101.3	.0139	.001
298.15	101.3	.0154	.001
303.15	101.3	.017	.001
308.15	101.3	.0189	.001
313.15	101.3	.019	.001
318.15	101.3	.0199	.001
323.15	101.3	.0202	.001
328.15	101.3	.021	.001
333.15	101.3	.0214	.001
338.15	101.3	.0227	.001
343.15	101.3	.0259	.001
348.15	101.3	.028	.001
353.15	101.3	.0322	.001

System: 1-chloro-2,3-epoxypropane + water; phases: Liquid mixture 2, Liquid mixture 1
Property: Mole fraction of 1-chloro-2,3-epoxypropane (Liquid mixture 2); method: Chromatography
Temperature, K	Pressure, kPa	Mole fraction of 1-chloro-2,3-epoxypropane	uncertainty
293.15	101.3	.9445	.001
298.15	101.3	.9332	.001
303.15	101.3	.922	.001
308.15	101.3	.9088	.001
313.15	101.3	.8962	.001
318.15	101.3	.8837	.001
323.15	101.3	.872	.001
328.15	101.3	.8605	.001
333.15	101.3	.8476	.001
338.15	101.3	.8333	.001
343.15	101.3	.8187	.001
348.15	101.3	.8052	.001
353.15	101.3	.7907	.001

System: 1-chloro-2,3-epoxypropane + water; phases: Liquid, Gas
Property: Boiling temperature at pressure P, K (Liquid); method: Ebulliometric method (Recirculating still)
Mole fraction of 1-chloro-2,3-epoxypropane	Pressure, kPa	Boiling temperature at pressure P, K	uncertainty
.01	101.3	368.92	.01
.02	101.3	365.89	.01
.03	101.3	363.74	.01
.037	101.3	362.75	.01
.041	101.3	361.7	.01
.051	101.3	361.7	.01
.082	101.3	361.7	.01
.135	101.3	361.7	.01
.253	101.3	361.7	.01
.324	101.3	361.7	.01
.409	101.3	361.7	.01
.521	101.3	361.7	.01
.624	101.3	361.7	.01
.693	101.3	361.7	.01
.729	101.3	361.7	.01
.737	101.3	361.7	.01
.76	101.3	361.7	.01
.782	101.3	362.75	.01
.818	101.3	364.23	.01
.859	101.3	366.6	.01
.889	101.3	369.09	.01
.899	101.3	370.1	.01
.939	101.3	375.44	.01
.96	101.3	379.25	.01
.97	101.3	381.59	.01
.98	101.3	384.31	.01
.99	101.3	387.52	.01

System: 1-chloro-2,3-epoxypropane + water; phases: Gas, Liquid
Property: Mole fraction of 1-chloro-2,3-epoxypropane (Gas); method: Chromatography
Mole fraction of 1-chloro-2,3-epoxypropane	Pressure, kPa	Mole fraction of 1-chloro-2,3-epoxypropane	uncertainty
.01	101.3	.151	.001
.02	101.3	.247	.001
.03	101.3	.31	.001
.037	101.3	.338	.001
.041	101.3	.331	.001
.051	101.3	.33	.001
.082	101.3	.331	.001
.135	101.3	.33	.001
.253	101.3	.331	.001
.324	101.3	.33	.001
.409	101.3	.331	.001
.521	101.3	.33	.001
.624	101.3	.331	.001
.693	101.3	.33	.001
.729	101.3	.331	.001
.737	101.3	.331	.001
.76	101.3	.33	.001
.782	101.3	.338	.001
.818	101.3	.365	.001
.859	101.3	.407	.001
.889	101.3	.453	.001
.899	101.3	.473	.001
.939	101.3	.584	.001
.96	101.3	.669	.001
.97	101.3	.726	.001
.98	101.3	.796	.001
.99	101.3	.885	.001

System: 1-chloro-2,3-epoxypropane + water; phases: Liquid mixture 1, Liquid mixture 2
Fixed: Pressure, kPa = 101.3
Property: Activity coefficient of 1-chloro-2,3-epoxypropane (Liquid mixture 1); method: Chromatography
Temperature, K	Activity coefficient of 1-chloro-2,3-epoxypropane	uncertainty
368.92	29.891	
365.89	27.128	
363.74	24.487	
362.75	22.939	
361.7	20.716	
361.7	16.644	
361.7	10.364	
361.7	6.286	
361.7	3.356	
361.7	2.619	
361.7	2.077	
361.7	1.629	
361.7	1.361	
361.7	1.225	
361.7	1.166	
361.7	1.152	
361.7	1.117	
362.75	1.071	
364.23	1.048	
366.6	1.028	
369.09	1.017	
370.1	1.015	
375.44	1.007	
379.25	1.002	
381.59	1.001	
384.31	1.001	
387.52	1	

System: 1-chloro-2,3-epoxypropane + water; phases: Liquid mixture 1, Liquid mixture 2
Fixed: Pressure, kPa = 101.3
Property: Activity coefficient of water (Liquid mixture 1); method: Chromatography
Temperature, K	Activity coefficient of water	uncertainty
368.92	1.001	
365.89	1.003	
363.74	1.006	
362.75	1.008	
361.7	1.066	
361.7	1.078	
361.7	1.114	
361.7	1.183	
361.7	1.369	
361.7	1.514	
361.7	1.73	
361.7	2.136	
361.7	2.72	
361.7	3.332	
361.7	3.773	
361.7	3.889	
361.7	4.262	
362.75	4.452	
364.23	4.851	
366.6	5.327	
369.09	5.705	
370.1	5.825	
375.44	6.339	
379.25	6.622	
381.59	6.748	
384.31	6.871	
387.52	6.992	
