Measured thermophysical data. Surface tension of an ethane-nitrogen solution. 1: Experiment and thermodynamic analysis of the results
Source: Fluid Phase Equilib., 2012, 10.1016/j.fluid.2012.05.005
Compound 1: ethane, C2H6, purity 99.75%
Compound 2: nitrogen, N2, purity 99.999%

System: ethane + nitrogen; phases: Liquid
Property: Mass density, kg/m3 (Liquid); method: Equation of State Calculation
Temperature, K	Pressure, kPa	Mole fraction of nitrogen	Mass density, kg/m3	uncertainty
93.15	114	.025	651.7	
93.15	197	.046	654.6	
93.15	319	.091	659.5	
113.15	402	.039	634.8	
113.15	788	.084	635.8	
113.15	908	.1	637.5	
113.15	910	.1	637.5	
113.15	916	.101	637.6	
113.15	1284	.163	641.9	
113.15	1289	.165	642.1	
113.15	1301	.167	642.2	
113.15	1414	.196	644.6	
113.15	1452	.208	645.7	
113.15	1509	.231	647.8	
133.15	2	0	604.9	
133.15	206	.013	611.7	
133.15	695	.045	613.3	
133.15	778	.05	613.6	
133.15	816	.052	613.7	
133.15	1282	.083	615.5	
133.15	1590	.104	616.9	
133.15	1593	.105	616.9	
133.15	1772	.118	617.7	
133.15	2014	.136	618.9	
133.15	2167	.147	619.6	
133.15	2203	.15	619.9	
133.15	2368	.163	620.8	
133.15	2890	.205	623.8	
133.15	3187	.23	625.6	
133.15	3709	.276	627.6	
133.15	3904	.295	628.4	
153.15	13	0	581.9	
153.15	792	.039	589.8	
153.15	1584	.076	591.7	
153.15	2385	.113	593.6	
153.15	3177	.148	595.4	
153.15	3880	.178	597	
173.15	52	0	558.1	
173.15	798	.029	564.9	
173.15	1568	.058	565.9	
173.15	1591	.059	565.9	
173.15	2400	.088	566.9	
173.15	2587	.095	567.2	
173.15	3189	.116	567.9	
173.15	3607	.131	568.3	
173.15	3932	.142	568.7	
193.15	153	0	533.2	
193.15	1000	.028	539.1	
193.15	1997	.06	539.6	
193.15	2994	.091	539.9	
193.15	3915	.12	540.2	
213.15	390	0	506.5	
213.15	1115	.022	511.5	
213.15	1800	.042	511.3	
213.15	2504	.063	511	
213.15	3203	.083	510.7	
213.15	3893	.103	510.4	
233.15	786	0	477	
233.15	1595	.023	481	
233.15	2401	.046	480.1	
233.15	3172	.067	479	
233.15	3895	.088	478	
253.15	1436	0	443.1	
253.15	1887	.013	446.6	
253.15	2411	.027	445.3	
253.15	2889	.041	444.1	
253.15	3389	.055	442.7	
253.15	3913	.07	441.3	
263.15	1875	0	423.4	
263.15	2412	.015	426	
263.15	2904	.029	424.3	
263.15	3404	.044	422.5	
263.15	3918	.059	420.6	
273.15	2406	0	400.9	
273.15	2892	.014	402.9	
273.15	3391	.029	400.5	
273.15	3885	.044	398	
283.15	3025	0	374.2	
283.15	3274	.007	376.6	
283.15	3605	.017	374.4	
283.15	3901	.026	372.3	

System: ethane + nitrogen; phases: Gas
Property: Mass density, kg/m3 (Gas); method: Equation of State Calculation
Temperature, K	Pressure, kPa	Mole fraction of nitrogen	Mass density, kg/m3	uncertainty
93.15	114	.025	4.23	
93.15	197	.046	7.51	
93.15	319	.091	12.6	
113.15	402	.039	44.3	
113.15	788	.084	22.3	
113.15	908	.1	26.6	
113.15	910	.1	26.6	
113.15	916	.101	26.6	
113.15	1284	.163	27.8	
113.15	1289	.165	27.9	
113.15	1301	.167	28.1	
113.15	1414	.196	32	
113.15	1452	.208	34.1	
113.15	1509	.231	38.8	
133.15	206	.013	5.37	
133.15	695	.045	17.7	
133.15	778	.05	19.7	
133.15	816	.052	20.3	
133.15	1282	.083	32.9	
133.15	1590	.104	42.7	
133.15	1593	.105	42.8	
133.15	1772	.118	48.5	
133.15	2014	.136	57.5	
133.15	2167	.147	63.6	
133.15	2203	.15	65.3	
133.15	2368	.163	73.1	
133.15	2890	.205	103.8	
133.15	3187	.23	128.8	
133.15	3709	.276	170.8	
133.15	3904	.295	198.2	
153.15	13	0	.3	
153.15	792	.039	18.3	
153.15	1584	.076	38.5	
153.15	2385	.113	61.3	
153.15	3177	.148	86.9	
153.15	3880	.178	112.9	
173.15	52	0	1.12	
173.15	798	.029	16.3	
173.15	1568	.058	32.9	
173.15	1591	.059	33.4	
173.15	2400	.088	52.1	
173.15	2587	.095	56.7	
173.15	3189	.116	71.8	
173.15	3607	.131	82.9	
173.15	3932	.142	91.7	
193.15	153	0	3.11	
193.15	1000	.028	18.6	
193.15	1997	.06	38	
193.15	2994	.091	58.6	
193.15	3915	.12	78.8	
213.15	390	0	7.06	
213.15	1115	.022	19.5	
213.15	1800	.042	31.6	
213.15	2504	.063	44.3	
213.15	3203	.083	57.4	
213.15	3893	.103	70.8	
233.15	786	0	14.1	
233.15	1595	.023	27.3	
233.15	2401	.046	40.7	
233.15	3172	.067	54	
233.15	3895	.088	66.9	
253.15	1436	0	26	
253.15	1887	.013	33.4	
253.15	2411	.027	41.8	
253.15	2889	.041	49.6	
253.15	3389	.055	57.9	
253.15	3913	.07	66.8	
263.15	1875	0	34.7	
263.15	2412	.015	43.6	
263.15	2904	.029	51.7	
263.15	3404	.044	60	
263.15	3918	.059	68.7	
273.15	2406	0	46.2	
273.15	2892	.014	54.7	
273.15	3391	.029	62.2	
273.15	3885	.044	71.8	
283.15	3025	0	62.1	
283.15	3274	.007	66.9	
283.15	3605	.017	72.9	
283.15	3901	.026	78.5	

System: ethane + nitrogen; phases: Liquid, Air at 1 atmosphere
Property: Surface tension liquid-gas, N/m (Liquid); method: Capillary rise
Temperature, K	Pressure, kPa	Surface tension liquid-gas, N/m	uncertainty
93.15	114	.02539	.0015
93.15	197	.02163	.0015
93.15	319	.01651	.0015
113.15	402	.02127	.001
113.15	788	.01701	.001
113.15	908	.01505	.001
113.15	910	.01574	.001
113.15	916	.01473	.001
113.15	1284	.01157	.001
113.15	1289	.01115	.001
113.15	1301	.01103	.001
113.15	1414	.00962	.001
113.15	1452	.00925	.001
113.15	1509	.00825	.001
133.15	206	.02378	.001
133.15	695	.02035	.001
133.15	778	.01968	.001
133.15	816	.01928	.001
133.15	1282	.01653	.001
133.15	1590	.01522	.001
133.15	1593	.01482	.001
133.15	1772	.01372	.001
133.15	2014	.01234	.001
133.15	2167	.0122	.001
133.15	2203	.01195	.001
133.15	2368	.01169	.001
133.15	2890	.00888	.001
133.15	3187	.00792	.001
133.15	3709	.00603	.001
133.15	3904	.00496	.001
153.15	13	.02169	.001
153.15	792	.01848	.001
153.15	1584	.01556	.001
153.15	2385	.01291	.001
153.15	3177	.01063	.001
153.15	3880	.00884	.001
173.15	52	.01829	.001
173.15	798	.0164	.001
173.15	1568	.01426	.001
173.15	1591	.01435	.001
173.15	2400	.01248	.001
173.15	2587	.01198	.001
173.15	3189	.01076	.001
173.15	3607	.00986	.001
173.15	3932	.00927	.001
193.15	153	.01509	.001
193.15	1000	.01339	.001
193.15	1997	.0115	.001
193.15	2994	.00978	.001
193.15	3915	.00836	.001
213.15	390	.01177	.001
213.15	1115	.01091	.001
213.15	1800	.00994	.001
213.15	2504	.00896	.001
213.15	3203	.00801	.001
213.15	3893	.00714	.001
233.15	786	.0087	.001
233.15	1595	.00782	.001
233.15	2401	.00688	.001
233.15	3172	.00605	.001
233.15	3895	.00541	.001
253.15	1436	.00581	.001
253.15	1887	.0055	.001
253.15	2411	.00503	.001
253.15	2889	.00463	.001
253.15	3389	.00417	.001
253.15	3913	.00377	.001
263.15	1875	.00443	.001
263.15	2412	.00407	.001
263.15	2904	.00368	.001
263.15	3404	.00331	.001
263.15	3918	.00295	.001
273.15	2406	.00324	.001
273.15	2892	.00289	.001
273.15	3391	.00257	.001
273.15	3885	.00226	.001
283.15	3025	.00195	.001
283.15	3274	.00187	.001
283.15	3605	.0017	.001
283.15	3901	.00154	.001
