Measured thermophysical data. Gaseous absorption of fluorinated ethanes by ionic liquids
Source: Fluid Phase Equilib., 2015, 10.1016/j.fluid.2015.07.001
Compound 1: trihexyltetradecylphosphonium bis(2,4,4-trimethylpentyl)phosphinate, C48H102O2P2, purity 95%
Compound 2: 1,1,1,2-tetrafluoroethane, C2H2F4, purity 99.9%
Compound 3: 1,1,1-trifluoroethane, C2H3F3, purity 99.9%
Compound 4: pentafluoroethane, C2HF5, purity 99.9%
Compound 5: 1,1-difluoroethane, C2H4F2, purity 99.9%
Compound 6: fluoroethane, C2H5F, purity 99.95%

System: 1,1,1,2-tetrafluoroethane + trihexyltetradecylphosphonium bis(2,4,4-trimethylpentyl)phosphinate; phases: Gas, Liquid
Property: Vapor or sublimation pressure, kPa (Gas); method: Isochoric PVT apparatus
Temperature, K	Mole fraction of 1,1,1,2-tetrafluoroethane	Vapor or sublimation pressure, kPa	uncertainty
303.4	.246	164	.3
303.3	.335	241	.3
303.4	.397	299	.3
303.5	.432	343	.3
303.3	.46	378	.3
302.9	.488	406	.3
313	.231	198	.3
313.7	.325	297	.3
312.8	.379	361	.3
313.6	.415	422	.3
313.8	.446	473	.3
314	.474	517	.3
323.4	.222	240	.3
322.9	.31	350	.3
323.2	.361	434	.3
323.4	.398	500	.3
323.9	.422	562	.3
322.6	.445	606	.3
333.1	.21	276	.3
333.4	.296	409	.3
333.3	.348	506	.3
332.6	.381	576	.3
332.4	.405	645	.3
333	.429	706	.3
342.7	.199	312	.3
343.5	.281	468	.3
343.6	.329	579	.3
343.6	.362	667	.3
343	.386	745	.3
342.5	.405	801	.3

System: 1,1,1,2-tetrafluoroethane + trihexyltetradecylphosphonium bis(2,4,4-trimethylpentyl)phosphinate; phases: Gas, Liquid
Property: Mole fraction of 1,1,1,2-tetrafluoroethane (Gas); method: Component 2 is not volatile
Temperature, K	Mole fraction of 1,1,1,2-tetrafluoroethane	Mole fraction of 1,1,1,2-tetrafluoroethane	uncertainty
303.4	.246	1	.04
303.3	.335	1	.04
303.4	.397	1	.04
303.5	.432	1	.04
303.3	.46	1	.04
302.9	.488	1	.04
313	.231	1	.04
313.7	.325	1	.04
312.8	.379	1	.04
313.6	.415	1	.04
313.8	.446	1	.04
314	.474	1	.04
323.4	.222	1	.04
322.9	.31	1	.04
323.2	.361	1	.04
323.4	.398	1	.04
323.9	.422	1	.04
322.6	.445	1	.04
333.1	.21	1	.04
333.4	.296	1	.04
333.3	.348	1	.04
332.6	.381	1	.04
332.4	.405	1	.04
333	.429	1	.04
342.7	.199	1	.04
343.5	.281	1	.04
343.6	.329	1	.04
343.6	.362	1	.04
343	.386	1	.04
342.5	.405	1	.04

System: 1,1,1-trifluoroethane + trihexyltetradecylphosphonium bis(2,4,4-trimethylpentyl)phosphinate; phases: Gas, Liquid
Property: Vapor or sublimation pressure, kPa (Gas); method: Isochoric PVT apparatus
Temperature, K	Mole fraction of 1,1,1-trifluoroethane	Vapor or sublimation pressure, kPa	uncertainty
303.8	.107	169	.3
302.3	.161	260	.3
303.1	.205	357	.3
302.4	.278	506	.3
302.4	.342	674	.3
302.7	.385	792	.3
313.4	.1	179	.3
313.2	.153	283	.3
312.9	.195	387	.3
312.8	.269	567	.3
313.2	.331	756	.3
313.9	.371	889	.3
322.7	.094	194	.3
323.7	.143	308	.3
322.8	.185	422	.3
323.6	.254	630	.3
323.2	.315	837	.3
322.4	.347	961	.3
333.6	.092	209	.3
332.7	.139	329	.3
332.7	.174	450	.3
333.2	.244	682	.3
333.6	.296	915	.3
333.5	.324	1063	.3
343.8	.087	223	.3
342.4	.132	352	.3
342.9	.17	475	.3
342.8	.232	732	.3
342.5	.278	979	.3
342.4	.302	1136	.3

System: 1,1,1-trifluoroethane + trihexyltetradecylphosphonium bis(2,4,4-trimethylpentyl)phosphinate; phases: Gas, Liquid
Property: Mole fraction of 1,1,1-trifluoroethane (Gas); method: Solvent component 2 is not volatile.
Temperature, K	Mole fraction of 1,1,1-trifluoroethane	Mole fraction of 1,1,1-trifluoroethane	uncertainty
303.8	.107	1	.04
302.3	.161	1	.04
303.1	.205	1	.04
302.4	.278	1	.04
302.4	.342	1	.04
302.7	.385	1	.04
313.4	.1	1	.04
313.2	.153	1	.04
312.9	.195	1	.04
312.8	.269	1	.04
313.2	.331	1	.04
313.9	.371	1	.04
322.7	.094	1	.04
323.7	.143	1	.04
322.8	.185	1	.04
323.6	.254	1	.04
323.2	.315	1	.04
322.4	.347	1	.04
333.6	.092	1	.04
332.7	.139	1	.04
332.7	.174	1	.04
333.2	.244	1	.04
333.6	.296	1	.04
333.5	.324	1	.04
343.8	.087	1	.04
342.4	.132	1	.04
342.9	.17	1	.04
342.8	.232	1	.04
342.5	.278	1	.04
342.4	.302	1	.04

System: fluoroethane + trihexyltetradecylphosphonium bis(2,4,4-trimethylpentyl)phosphinate; phases: Gas, Liquid
Property: Vapor or sublimation pressure, kPa (Gas); method: Isochoric PVT apparatus
Temperature, K	Mole fraction of fluoroethane	Vapor or sublimation pressure, kPa	uncertainty
302.2	.185	97	.3
302.7	.289	168	.3
303.2	.349	217	.3
302.9	.411	270	.3
302.8	.438	299	.3
302.9	.479	338	.3
312.7	.177	114	.3
312.6	.27	196	.3
312.3	.333	251	.3
312.6	.395	317	.3
312.8	.427	353	.3
313.6	.472	404	.3
322.6	.162	131	.3
322.6	.263	226	.3
322.7	.325	291	.3
323.9	.391	374	.3
322.7	.423	408	.3
322.8	.46	465	.3
332.3	.151	147	.3
333.1	.249	257	.3
333.5	.319	334	.3
333.6	.379	422	.3
333	.413	469	.3
333.2	.449	533	.3
343.3	.139	166	.3
343.1	.232	287	.3
343	.298	370	.3
343.3	.368	471	.3
342.2	.396	521	.3
342.5	.434	595	.3

System: fluoroethane + trihexyltetradecylphosphonium bis(2,4,4-trimethylpentyl)phosphinate; phases: Gas, Liquid
Property: Mole fraction of fluoroethane (Gas); method: Solvent component 2 is not volatile.
Temperature, K	Mole fraction of fluoroethane	Mole fraction of fluoroethane	uncertainty
302.2	.185	1	.04
302.7	.289	1	.04
303.2	.349	1	.04
302.9	.411	1	.04
302.8	.438	1	.04
302.9	.479	1	.04
312.7	.177	1	.04
312.6	.27	1	.04
312.3	.333	1	.04
312.6	.395	1	.04
312.8	.427	1	.04
313.6	.472	1	.04
322.6	.162	1	.04
322.6	.263	1	.04
322.7	.325	1	.04
323.9	.391	1	.04
322.7	.423	1	.04
322.8	.46	1	.04
332.3	.151	1	.04
333.1	.249	1	.04
333.5	.319	1	.04
333.6	.379	1	.04
333	.413	1	.04
333.2	.449	1	.04
343.3	.139	1	.04
343.1	.232	1	.04
343	.298	1	.04
343.3	.368	1	.04
342.2	.396	1	.04
342.5	.434	1	.04

System: pentafluoroethane + trihexyltetradecylphosphonium bis(2,4,4-trimethylpentyl)phosphinate; phases: Gas, Liquid
Property: Vapor or sublimation pressure, kPa (Gas); method: Isochoric PVT apparatus
Temperature, K	Mole fraction of pentafluoroethane	Vapor or sublimation pressure, kPa	uncertainty
303.5	.202	114	.3
303.7	.362	233	.3
302.9	.41	272	.3
302.4	.481	344	.3
302.5	.536	406	.3
312.6	.194	145	.3
313.4	.344	285	.3
312.5	.396	339	.3
312.7	.46	430	.3
314.1	.503	500	.3
323	.191	182	.3
323.3	.324	340	.3
323	.38	418	.3
323.5	.437	531	.3
323.2	.489	626	.3
333.4	.186	224	.3
333.3	.313	398	.3
332.9	.365	495	.3
332.7	.419	614	.3
332.7	.464	731	.3
343.6	.18	263	.3
343.1	.291	458	.3
343.4	.344	578	.3
343.5	.402	723	.3
343.2	.451	847	.3

System: pentafluoroethane + trihexyltetradecylphosphonium bis(2,4,4-trimethylpentyl)phosphinate; phases: Gas, Liquid
Property: Mole fraction of pentafluoroethane (Gas); method: Solvent component 2 is not volatile.
Temperature, K	Mole fraction of pentafluoroethane	Mole fraction of pentafluoroethane	uncertainty
303.5	.202	1	.04
303.7	.362	1	.04
302.9	.41	1	.04
302.4	.481	1	.04
302.5	.536	1	.04
312.6	.194	1	.04
313.4	.344	1	.04
312.5	.396	1	.04
312.7	.46	1	.04
314.1	.503	1	.04
323	.191	1	.04
323.3	.324	1	.04
323	.38	1	.04
323.5	.437	1	.04
323.2	.489	1	.04
333.4	.186	1	.04
333.3	.313	1	.04
332.9	.365	1	.04
332.7	.419	1	.04
332.7	.464	1	.04
343.6	.18	1	.04
343.1	.291	1	.04
343.4	.344	1	.04
343.5	.402	1	.04
343.2	.451	1	.04

System: 1,1-difluoroethane + trihexyltetradecylphosphonium bis(2,4,4-trimethylpentyl)phosphinate; phases: Gas, Liquid
Property: Vapor or sublimation pressure, kPa (Gas); method: Isochoric PVT apparatus
Temperature, K	Mole fraction of 1,1-difluoroethane	Vapor or sublimation pressure, kPa	uncertainty
302.2	.105	55	.3
302.5	.191	102	.3
302.3	.258	150	.3
303.3	.343	222	.3
302.7	.383	259	.3
302.3	.413	284	.3
312.8	.095	64	.3
312.4	.177	123	.3
312.6	.24	182	.3
313.2	.318	267	.3
312.2	.358	312	.3
312.9	.388	350	.3
322.6	.088	73	.3
323.3	.164	149	.3
322.8	.225	216	.3
322.5	.292	312	.3
323.7	.335	380	.3
322.6	.357	414	.3
333.2	.078	81	.3
332.6	.148	173	.3
333.2	.207	253	.3
333.1	.269	367	.3
333.7	.307	442	.3
333.1	.326	488	.3
343.1	.067	88	.3
342.3	.136	199	.3
343	.187	291	.3
342.8	.244	420	.3
343.2	.272	504	.3
343.1	.293	561	.3

System: 1,1-difluoroethane + trihexyltetradecylphosphonium bis(2,4,4-trimethylpentyl)phosphinate; phases: Gas, Liquid
Property: Mole fraction of 1,1-difluoroethane (Gas); method: Solvent component 2 is not volatile.
Temperature, K	Mole fraction of 1,1-difluoroethane	Mole fraction of 1,1-difluoroethane	uncertainty
302.2	.105	1	.04
302.5	.191	1	.04
302.3	.258	1	.04
303.3	.343	1	.04
302.7	.383	1	.04
302.3	.413	1	.04
312.8	.095	1	.04
312.4	.177	1	.04
312.6	.24	1	.04
313.2	.318	1	.04
312.2	.358	1	.04
312.9	.388	1	.04
322.6	.088	1	.04
323.3	.164	1	.04
322.8	.225	1	.04
322.5	.292	1	.04
323.7	.335	1	.04
322.6	.357	1	.04
333.2	.078	1	.04
332.6	.148	1	.04
333.2	.207	1	.04
333.1	.269	1	.04
333.7	.307	1	.04
333.1	.326	1	.04
343.1	.067	1	.04
342.3	.136	1	.04
343	.187	1	.04
342.8	.244	1	.04
343.2	.272	1	.04
343.1	.293	1	.04
