Measured thermophysical data. Phase equilibrium data for mixtures involving 1,1,2,3,3,3-hexafluoro-1-propene with either propane or n-butane between 312 and 343 K
Source: Fluid Phase Equilib., 2015, 10.1016/j.fluid.2015.07.039
Compound 1: 1,1,2,3,3,3-hexafluoro-1-propene, C3F6
Compound 2: n-propane, C3H8, purity 99.95%
Compound 3: butane, C4H10, purity 99.95%

System: n-propane; phases: Liquid, Gas
Property: Vapor or sublimation pressure, kPa (Liquid); method: Closed cell (Static) method
Temperature, K	Vapor or sublimation pressure, kPa	uncertainty
302.97	1072	4
307.96	1214	4
312.99	1361	4
317.89	1522	4
322.99	1712	4
327.97	1906	4
332.93	2103	4
337.91	2336	4
342.91	2582	4

System: butane; phases: Liquid, Gas
Property: Vapor or sublimation pressure, kPa (Liquid); method: Closed cell (Static) method
Temperature, K	Vapor or sublimation pressure, kPa	uncertainty
302.92	280	4
307.93	324	4
312.87	377	4
317.88	432	4
322.86	491	4
327.88	561	4
332.83	632	4
337.82	714	4
342.82	804	4
347.81	897	4

System: n-propane + 1,1,2,3,3,3-hexafluoro-1-propene; phases: Liquid, Gas
Property: Vapor or sublimation pressure, kPa (Liquid); method: Closed cell (Static) method
Mole fraction of n-propane	Temperature, K	Vapor or sublimation pressure, kPa	uncertainty
.08	312.9	1233	4
.118	312.9	1290	4
.172	312.9	1359	4
.218	312.9	1408	4
.307	312.9	1484	4
.39	312.9	1535	4
.507	312.9	1582	4
.61	312.9	1599	4
.69	312.9	1595	4
.734	312.9	1588	4
.854	312.9	1535	4
.94	312.9	1451	4
.071	327.88	1741	4
.138	327.88	1857	4
.198	327.88	1947	4
.317	327.88	2079	4
.38	327.88	2131	4
.453	327.88	2176	4
.502	327.88	2197	4
.601	327.88	2217	4
.706	327.88	2205	4
.781	327.88	2171	4
.876	327.88	2091	4
.92	327.88	2038	4
.118	342.92	2527	4
.203	342.92	2691	4
.287	342.92	2817	4
.07	342.92	2416	4
.357	342.92	2898	4
.472	342.92	2982	4
.56	342.92	3007	4
.655	342.92	3001	4
.76	342.92	2946	4
.84	342.92	2861	4
.9	342.92	2778	4
.96	342.92	2671	4

System: n-propane + 1,1,2,3,3,3-hexafluoro-1-propene; phases: Gas, Liquid
Property: Mole fraction of n-propane (Gas); method: Chromatography
Mole fraction of n-propane	Temperature, K	Mole fraction of n-propane	uncertainty
.08	312.9	.146	.007
.118	312.9	.201	.007
.172	312.9	.265	.007
.218	312.9	.315	.007
.307	312.9	.397	.007
.39	312.9	.463	.007
.507	312.9	.543	.007
.61	312.9	.616	.007
.69	312.9	.672	.007
.734	312.9	.702	.007
.854	312.9	.8	.007
.94	312.9	.904	.007
.071	327.88	.113	.007
.138	327.88	.202	.007
.198	327.88	.27	.007
.317	327.88	.382	.007
.38	327.88	.434	.007
.453	327.88	.491	.007
.502	327.88	.528	.007
.601	327.88	.604	.007
.706	327.88	.682	.007
.781	327.88	.743	.007
.876	327.88	.839	.007
.92	327.88	.886	.007
.118	342.92	.156	.007
.203	342.92	.248	.007
.287	342.92	.328	.007
.07	342.92	.098	.007
.357	342.92	.393	.007
.472	342.92	.487	.007
.56	342.92	.564	.007
.655	342.92	.646	.007
.76	342.92	.735	.007
.84	342.92	.81	.007
.9	342.92	.873	.007
.96	342.92	.945	.007

System: butane + 1,1,2,3,3,3-hexafluoro-1-propene; phases: Liquid, Gas
Property: Vapor or sublimation pressure, kPa (Liquid); method: Closed cell (Static) method
Mole fraction of 1,1,2,3,3,3-hexafluoro-1-propene	Temperature, K	Vapor or sublimation pressure, kPa	uncertainty
.041	312.9	498	4
.071	312.9	568	4
.101	312.9	618	4
.111	312.9	636	4
.15	312.9	692	4
.224	312.9	778	4
.279	312.9	822	4
.315	312.9	839	4
.424	312.9	896	4
.51	312.9	947	4
.665	312.9	1002	4
.826	312.9	1057	4
.871	312.9	1064	4
.923	312.9	1075	4
.036	327.88	677	4
.072	327.88	774	4
.099	327.88	845	4
.147	327.88	943	4
.201	327.88	1036	4
.297	327.88	1179	4
.402	327.88	1289	4
.48	327.88	1359	4
.579	327.88	1430	4
.697	327.88	1489	4
.743	327.88	1513	4
.811	327.88	1539	4
.889	327.88	1560	4
.959	327.88	1576	4
.039	342.88	965	4
.075	342.88	1090	4
.116	342.88	1207	4
.159	342.88	1324	4
.211	342.88	1442	4
.265	342.88	1550	4
.317	342.88	1635	4
.408	342.88	1765	4
.498	342.88	1872	4
.589	342.88	1970	4
.732	342.88	2103	4
.8	342.88	2154	4

System: butane + 1,1,2,3,3,3-hexafluoro-1-propene; phases: Gas, Liquid
Property: Mole fraction of butane (Gas); method: Chromatography
Mole fraction of 1,1,2,3,3,3-hexafluoro-1-propene	Temperature, K	Mole fraction of butane	uncertainty
.041	312.9	.247	.007
.071	312.9	.336	.007
.101	312.9	.401	.007
.111	312.9	.42	.007
.15	312.9	.473	.007
.224	312.9	.535	.007
.279	312.9	.575	.007
.315	312.9	.595	.007
.424	312.9	.642	.007
.51	312.9	.68	.007
.665	312.9	.755	.007
.826	312.9	.853	.007
.871	312.9	.884	.007
.923	312.9	.926	.007
.036	327.88	.173	.007
.072	327.88	.285	.007
.099	327.88	.351	.007
.147	327.88	.43	.007
.201	327.88	.493	.007
.297	327.88	.571	.007
.402	327.88	.633	.007
.48	327.88	.669	.007
.579	327.88	.717	.007
.697	327.88	.784	.007
.743	327.88	.807	.007
.811	327.88	.85	.007
.889	327.88	.9	.007
.959	327.88	.962	.007
.039	342.88	.164	.007
.075	342.88	.259	.007
.116	342.88	.34	.007
.159	342.88	.403	.007
.211	342.88	.457	.007
.265	342.88	.506	.007
.317	342.88	.544	.007
.408	342.88	.598	.007
.498	342.88	.646	.007
.589	342.88	.694	.007
.732	342.88	.785	.007
.8	342.88	.831	.007
