Measured thermophysical data. Phase-equilibrium measurements with a novel multi-purpose high-pressure view cell: CO2 + n-decane and CO2 + toluene
Source: Fluid Phase Equilib., 2016, 10.1016/j.fluid.2016.03.010
Compound 1: carbon dioxide, CO2, purity 99.9995%
Compound 2: n-decane, C10H22, purity 99%
Compound 3: toluene, C7H8, purity 99.8%

System: n-decane + carbon dioxide; phases: Liquid, Gas
Property: Vapor or sublimation pressure, kPa (Liquid); method: Closed cell (Static) method
Mole fraction of carbon dioxide	Temperature, K	Vapor or sublimation pressure, kPa	uncertainty
.148	319	1720	
.281	319	2701	
.337	319.2	3605	
.461	319.1	4875	
.499	319.2	5450	
.817	319.1	8310	
.1407	344.2	1845	
.2396	344.2	3025	
.3312	344.8	4410	
.3589	345	4850	
.7146	344.4	10621	

System: n-decane + carbon dioxide; phases: Gas, Liquid
Property: Mole fraction of carbon dioxide (Gas); method: Chromatography
Mole fraction of carbon dioxide	Temperature, K	Mole fraction of carbon dioxide	uncertainty
.148	319	.9974	
.281	319	.9987	
.337	319.2	.9972	
.461	319.1	.9949	
.499	319.2	.9948	
.817	319.1	.992	
.1407	344.2	.9946	
.2396	344.2	.9969	
.3312	344.8	.9967	
.3589	345	.998	
.7146	344.4	.9896	

System: n-decane + carbon dioxide; phases: Liquid, Gas
Property: Vapor or sublimation pressure, kPa (Liquid); method: Closed cell (Static) method
Temperature, K	Mole fraction of carbon dioxide	Vapor or sublimation pressure, kPa	uncertainty
319.1	.595	6446	
319.1	.63	6932	
319.1	.701	7455	
344.3	.466	6320	
344.3	.595	8650	
344.2	.63	9248	
344.5	.741	11030	
344.4	.82	11863	
344.3	.924	12740	

System: n-decane + carbon dioxide; phases: Liquid, Gas
Property: Vapor or sublimation pressure, kPa (Liquid); method: Closed cell (Static) method
Temperature, K	Mole fraction of carbon dioxide	Vapor or sublimation pressure, kPa	uncertainty
324.6	.63	7150	
324.6	.731	8680	
334.8	.63	8410	
334.8	.731	9580	
344.5	.63	9260	
344.5	.731	10720	
354.8	.63	10280	
354.8	.731	12130	

System: n-decane + carbon dioxide; phases: Liquid, Gas
Property: Critical pressure, kPa (Liquid); method: Direct measurement
Mole fraction of carbon dioxide	Critical pressure, kPa	uncertainty
.986	8977	

System: toluene + carbon dioxide; phases: Liquid, Gas
Property: Vapor or sublimation pressure, kPa (Liquid); method: Closed cell (Static) method
Mole fraction of carbon dioxide	Temperature, K	Vapor or sublimation pressure, kPa	uncertainty
.0784	343.1	1120	
.157	343	2205	
.235	343	3351	
.294	343.1	4211	
.372	343.1	5420	
.137	313	1375	
.216	313.1	2172	
.314	313.1	3173	
.4115	313	4162	
.4711	313	4651	

System: toluene + carbon dioxide; phases: Gas, Liquid
Property: Mole fraction of carbon dioxide (Gas); method: Chromatography
Mole fraction of carbon dioxide	Temperature, K	Mole fraction of carbon dioxide	uncertainty
.0784	343.1	.9695	
.157	343	.9805	
.235	343	.9837	
.294	343.1	.9876	
.372	343.1	.9881	
.137	313	.9921	
.216	313.1	.994	
.314	313.1	.9956	
.4115	313	.9962	
.4711	313	.9964	

System: toluene + carbon dioxide; phases: Liquid, Gas
Property: Vapor or sublimation pressure, kPa (Liquid); method: Closed cell (Static) method
Temperature, K	Mole fraction of carbon dioxide	Vapor or sublimation pressure, kPa	uncertainty
312.8	.2346	2516	
313.1	.2452	2596	
313	.4773	4671	
313	.5336	4970	
313	.5545	5103	
313.1	.5678	5211	
313	.5741	5321	
313	.5823	5332	
313.1	.5983	5438	
313.1	.666	5790	
313	.6791	5917	
313.1	.6927	5990	
313	.7069	6121	
313	.7217	6200	
313.1	.7371	6316	
313	.7623	6420	
342.9	.2412	3473	
342.9	.2473	3560	
343.1	.2556	3787	
343.1	.2645	3936	
343	.274	4106	
343	.2841	4240	
343.1	.4853	7142	
343	.4986	7426	
343.1	.5126	7614	
343	.5275	7797	
343	.5432	7987	
343.1	.765	10180	
343.1	.7871	10331	
343	.8038	10509	
343	.8196	10705	
343	.8396	10926	
343	.8588	11117	
343.1	.8788	11305	
343.1	.8997	11418	
343	.9217	11474	

System: toluene + carbon dioxide; phases: Liquid, Gas
Property: Vapor or sublimation pressure, kPa (Liquid); method: Closed cell (Static) method
Temperature, K	Mole fraction of carbon dioxide	Vapor or sublimation pressure, kPa	uncertainty
303.56	.9211	6399	
312.39	.9211	7525	
