Measured thermophysical data. Effect of 1-carboxymethyl-3-methylimidazolium chloride ionic liquid on thermodynamic and solubility of L-threonine in water at 298.15 K and atmospheric pressure
Source: Fluid Phase Equilib., 2014, 10.1016/j.fluid.2014.07.001
Compound 1: 1-(carboxymethyl)-3-methyl-1H-imidazolium chloride, C6H9ClN2O2, purity 98%
Compound 2: L-threonine, C4H9NO3, purity 99%
Compound 3: sodium chloride, ClNa, purity 99.5%
Compound 4: water, H2O, purity 99.8%

System: L-threonine + sodium chloride + water; phases: Liquid
Fixed: Pressure, kPa = 101.33
Fixed: Temperature, K = 298.15
Property: (Relative) activity of water (Liquid); method: Isopiestic method
Molality, mol/kg of L-threonine	Molality, mol/kg of sodium chloride	(Relative) activity of water	uncertainty
.2224	.1442	.9957	.0005
.3881	.2224	.9931	.0005
.4181	.2401	.9925	.0005
.4983	.2732	.9915	.0005
.5178	.2871	.991	.0005
.5626	.3101	.9902	.0005
.5936	.3296	.9896	.0005

System: L-threonine + sodium chloride + water; phases: Liquid, Gas
Fixed: Temperature, K = 298.15
Property: Vapor or sublimation pressure, kPa (Liquid); method: Isopiestic method
Molality, mol/kg of L-threonine	Molality, mol/kg of sodium chloride	Vapor or sublimation pressure, kPa	uncertainty
.2224	.1442	3.161	.001
.3881	.2224	3.153	.001
.4181	.2401	3.151	.001
.4983	.2732	3.148	.001
.5178	.2871	3.146	.001
.5626	.3101	3.144	.001
.5936	.3296	3.142	.001

System: sodium chloride + water + 1-(carboxymethyl)-3-methyl-1H-imidazolium chloride; phases: Liquid
Fixed: Pressure, kPa = 101.33
Fixed: Temperature, K = 298.15
Property: (Relative) activity of water (Liquid); method: Isopiestic method
Molality, mol/kg of 1-(carboxymethyl)-3-methyl-1H-imidazolium chloride	Molality, mol/kg of sodium chloride	(Relative) activity of water	uncertainty
.1234	.1442	.9957	.0005
.1994	.2224	.9931	.0005
.2159	.2401	.9925	.0005
.2478	.2732	.9915	.0005
.2583	.2871	.991	.0005
.2845	.3101	.9802	.0005
.3023	.3296	.9896	.0005

System: sodium chloride + water + 1-(carboxymethyl)-3-methyl-1H-imidazolium chloride; phases: Liquid, Gas
Fixed: Temperature, K = 298.15
Property: Vapor or sublimation pressure, kPa (Liquid); method: Isopiestic method
Molality, mol/kg of 1-(carboxymethyl)-3-methyl-1H-imidazolium chloride	Molality, mol/kg of sodium chloride	Vapor or sublimation pressure, kPa	uncertainty
.1234	.1442	3.161	.001
.1994	.2224	3.153	.001
.2159	.2401	3.151	.001
.2478	.2732	3.148	.001
.2583	.2871	3.146	.001
.2845	.3101	3.144	.001
.3023	.3296	3.142	.001

System: L-threonine + water + 1-(carboxymethyl)-3-methyl-1H-imidazolium chloride; phases: Liquid, Crystal
Fixed: Pressure, kPa = 101.33
Fixed: Temperature, K = 298.15
Property: Mass ratio of solute to solvent of L-threonine (Liquid); method: Gravimetric Method
Molality, mol/kg of 1-(carboxymethyl)-3-methyl-1H-imidazolium chloride	Mass ratio of solute to solvent of L-threonine	uncertainty
0	.0977	.0005
.0412	.1003	.0005
.1413	.1063	.0005
.2753	.1269	.0005
.3551	.1332	.0005
.427	.1416	.0005
