Measured thermophysical data. Isothermal vapor-liquid equilibria measurements for binary systems of 2,3,3,3-tetrafluoropropene (HFO-1234yf) + 2-chloro-3,3,3- trifluoropropene (HCFO-1233xf) and 2-chloro-3,3,3-trifluoropropene (HCFO-1233xf) + 2-chloro-1,1,1,2-tetrafluoropropane (HCFC-244bb)
Source: Fluid Phase Equilib., 2016, 10.1016/j.fluid.2016.01.027
Compound 1: 2,3,3,3-tetrafluoroprop-1-ene, C3H2F4, purity 99.9%
Compound 2: 2-chloro-3,3,3-trifluoro-1-propene, C3H2ClF3, purity 99.9%
Compound 3: 2-chloro-1,1,1,2-tetrafluoropropane, C3H3ClF4, purity 99.5%

System: 2,3,3,3-tetrafluoroprop-1-ene + 2-chloro-3,3,3-trifluoro-1-propene; phases: Liquid, Gas
Property: Vapor or sublimation pressure, kPa (Liquid); method: Closed cell (Static) method
Temperature, K	Mole fraction of 2,3,3,3-tetrafluoroprop-1-ene	Vapor or sublimation pressure, kPa	uncertainty
293.15	0	132.6	
293.15	.168	216.7	
293.15	.312	285.9	
293.15	.422	332.4	
293.15	.503	371.2	
293.15	.583	406.7	
293.15	.671	449.3	
293.15	.743	483.2	
293.15	.841	523.9	
293.15	1	591.8	
303.15	0	184.5	
303.15	.162	290	
303.15	.313	382.2	
303.15	.425	447.8	
303.15	.505	495.5	
303.15	.584	541.5	
303.15	.668	596.2	
303.15	.746	642.6	
303.15	.842	695.5	
303.15	1	784.7	
313.15	0	254.3	
313.15	.162	399.9	
313.15	.315	503.4	
313.15	.425	606.6	
313.15	.505	665.2	
313.15	.584	730.6	
313.15	.667	790.1	
313.15	.746	843.8	
313.15	.838	910.5	
313.15	1	1018.2	

System: 2,3,3,3-tetrafluoroprop-1-ene + 2-chloro-3,3,3-trifluoro-1-propene; phases: Gas, Liquid
Property: Mole fraction of 2,3,3,3-tetrafluoroprop-1-ene (Gas); method: Chromatography
Temperature, K	Mole fraction of 2,3,3,3-tetrafluoroprop-1-ene	Mole fraction of 2,3,3,3-tetrafluoroprop-1-ene	uncertainty
293.15	0	0	
293.15	.168	.464	
293.15	.312	.648	
293.15	.422	.739	
293.15	.503	.791	
293.15	.583	.835	
293.15	.671	.875	
293.15	.743	.907	
293.15	.841	.946	
293.15	1	1	
303.15	0	0	
303.15	.162	.439	
303.15	.313	.632	
303.15	.425	.727	
303.15	.505	.781	
303.15	.584	.826	
303.15	.668	.868	
303.15	.746	.902	
303.15	.842	.941	
303.15	1	1	
313.15	0	0	
313.15	.162	.423	
313.15	.315	.62	
313.15	.425	.713	
313.15	.505	.768	
313.15	.584	.815	
313.15	.667	.856	
313.15	.746	.894	
313.15	.838	.934	
313.15	1	1	

System: 2-chloro-1,1,1,2-tetrafluoropropane + 2-chloro-3,3,3-trifluoro-1-propene; phases: Liquid, Gas
Property: Vapor or sublimation pressure, kPa (Liquid); method: Closed cell (Static) method
Temperature, K	Mole fraction of 2-chloro-3,3,3-trifluoro-1-propene	Vapor or sublimation pressure, kPa	uncertainty
303.15	0	179.5	
303.15	.189	181.3	
303.15	.354	182.8	
303.15	.573	184.6	
303.15	.678	185.5	
303.15	.749	186.1	
303.15	.832	186.4	
303.15	.87	186.4	
303.15	.935	185.8	
303.15	1	185.3	
313.15	0	245.1	
313.15	.189	247.9	
313.15	.354	249.8	
313.15	.573	251.9	
313.15	.677	252.8	
313.15	.749	253.6	
313.15	.834	253.8	
313.15	.871	253.8	
313.15	.935	253.6	
313.15	1	252.6	
323.15	0	327.8	
323.15	.189	332	
323.15	.354	334.7	
323.15	.57	338.7	
323.15	.677	339.8	
323.15	.749	340.4	
323.15	.834	340.5	
323.15	.871	340.5	
323.15	.935	339.6	
323.15	1	338.1	

System: 2-chloro-1,1,1,2-tetrafluoropropane + 2-chloro-3,3,3-trifluoro-1-propene; phases: Gas, Liquid
Property: Mole fraction of 2-chloro-3,3,3-trifluoro-1-propene (Gas); method: Chromatography
Temperature, K	Mole fraction of 2-chloro-3,3,3-trifluoro-1-propene	Mole fraction of 2-chloro-3,3,3-trifluoro-1-propene	uncertainty
303.15	0	0	
303.15	.189	.198	
303.15	.354	.383	
303.15	.573	.598	
303.15	.678	.693	
303.15	.749	.761	
303.15	.832	.845	
303.15	.87	.862	
303.15	.935	.931	
303.15	1	1	
313.15	0	0	
313.15	.189	.196	
313.15	.354	.378	
313.15	.573	.59	
313.15	.677	.69	
313.15	.749	.758	
313.15	.834	.84	
313.15	.871	.861	
313.15	.935	.93	
313.15	1	1	
323.15	0	0	
323.15	.189	.192	
323.15	.354	.372	
323.15	.57	.586	
323.15	.677	.686	
323.15	.749	.754	
323.15	.834	.836	
323.15	.871	.86	
323.15	.935	.929	
323.15	1	1	

System: 2-chloro-1,1,1,2-tetrafluoropropane + 2-chloro-3,3,3-trifluoro-1-propene; phases: Liquid, Gas
Property: Azeotropic composition: mole fraction of 2-chloro-3,3,3-trifluoro-1-propene (Liquid); method: By X=Y
Temperature, K	Azeotropic composition: mole fraction of 2-chloro-3,3,3-trifluoro-1-propene	uncertainty
303.15	.845	
313.15	.848	
323.15	.782	
