Measured thermophysical data. Application of [EMpy][ESO4] ionic liquid as solvent for the liquid extraction of xylenes from hexane
Source: Fluid Phase Equilib., 2010, 10.1016/j.fluid.2010.05.017
Compound 1: hexane, C6H14, purity 99%
Compound 2: 1,2-dimethylbenzene, C8H10, purity 99%
Compound 3: 1,4-dimethylbenzene, C8H10, purity 99%
Compound 4: 1,3-dimethylbenzene, C8H10, purity 99%
Compound 5: 1-ethyl-3-methylpyridinium ethylsulfate, C10H17NO4S

System: 1-ethyl-3-methylpyridinium ethylsulfate; phases: Liquid
Fixed: Pressure, kPa = 101.325
Property: Mass density, kg/m3 (Liquid); method: Vibrating tube method
Temperature, K	Mass density, kg/m3	uncertainty
298.15	1219.61	.05

System: 1-ethyl-3-methylpyridinium ethylsulfate; phases: Liquid
Fixed: Pressure, kPa = 101.325
Property: Refractive index (Na D-line) (Liquid); method: Standard Abbe refractometry
Temperature, K	Refractive index (Na D-line)	uncertainty
298.15	1.50591	.00008

System: 1,4-dimethylbenzene + hexane + 1-ethyl-3-methylpyridinium ethylsulfate; phases: Liquid mixture 1, Liquid mixture 2
Fixed: Temperature, K = 298.15
Property: Mass density, kg/m3 (Liquid mixture 1); method: Vibrating tube method
Mole fraction of hexane	Mole fraction of 1,4-dimethylbenzene	Mass density, kg/m3	uncertainty
.009	0	1217.17	.05
.012	.024	1212.89	.05
.008	.039	1211.04	.05
.011	.039	1210.52	.05
.007	.079	1204.34	.05
.002	.107	1199.7	.05
.003	.118	1197.38	.05
0	.163	1188.71	.05

System: 1,4-dimethylbenzene + hexane + 1-ethyl-3-methylpyridinium ethylsulfate; phases: Liquid mixture 1, Liquid mixture 2
Fixed: Pressure, kPa = 101
Fixed: Temperature, K = 298.15
Property: Mole fraction of 1,4-dimethylbenzene (Liquid mixture 1); method: Density calibration data
Mole fraction of hexane	Mole fraction of 1,4-dimethylbenzene	uncertainty
.009	0	.006
.012	.024	.006
.008	.039	.006
.011	.039	.006
.007	.079	.006
.002	.107	.006
.003	.118	.006
0	.163	.006

System: 1,4-dimethylbenzene + hexane + 1-ethyl-3-methylpyridinium ethylsulfate; phases: Liquid
Fixed: Pressure, kPa = 101
Fixed: Temperature, K = 298.15
Property: Mass density, kg/m3 (Liquid); method: Isochoric PVT measurement
Mole fraction of hexane	Mole fraction of 1,4-dimethylbenzene	Mass density, kg/m3	uncertainty
.003	.057	1207.88	.05
.003	.077	1204.19	.05
.003	.099	1200.47	.05

System: 1,4-dimethylbenzene + hexane + 1-ethyl-3-methylpyridinium ethylsulfate; phases: Liquid mixture 2, Liquid mixture 1
Fixed: Pressure, kPa = 101.3
Fixed: Temperature, K = 298.15
Property: Mole fraction of hexane (Liquid mixture 2); method: Density calibration data
Property: Mole fraction of 1,4-dimethylbenzene (Liquid mixture 1); method: Density calibration data
Property: Mole fraction of hexane (Liquid mixture 1); method: Density calibration data
Mole fraction of 1,4-dimethylbenzene	Mole fraction of hexane	uncertainty	Mole fraction of 1,4-dimethylbenzene	uncertainty	Mole fraction of hexane	uncertainty
.022	.009	.006	.131	.006	.869	.006
.049	.009	.006	.261	.006	.739	.006
.073	.008	.006	.398	.006	.602	.006
.093	.007	.006	.505	.006	.495	.006
.115	.006	.006	.65	.006	.35	.006
.14	.005	.006	.784	.006	.216	.006
.165	.002	.006	.92	.006	.08	.006

System: 1,2-dimethylbenzene + hexane; phases: Liquid
Fixed: Pressure, kPa = 101
Fixed: Temperature, K = 298.15
Property: Mass density, kg/m3 (Liquid); method: Vibrating tube method
Mole fraction of hexane	Mass density, kg/m3	uncertainty
0	875.37	.05
.045	865.52	.05
.097	853.5	.05
.189	832.71	.05
.295	809.05	.05
.397	786.32	.05
.495	764.54	.05
.597	742.07	.05
.697	720.32	.05
.797	698.71	.05
.901	676.45	.05
.95	665.83	.05
1	655.19	.05

System: 1,3-dimethylbenzene + hexane; phases: Liquid
Fixed: Pressure, kPa = 101
Fixed: Temperature, K = 298.15
Property: Mass density, kg/m3 (Liquid); method: Vibrating tube method
Mole fraction of hexane	Mass density, kg/m3	uncertainty
0	859.79	.05
.05	849.62	.05
.098	839.51	.05
.194	819.34	.05
.297	797.9	.05
.398	777.18	.05
.498	756.55	.05
.6	735.62	.05
.699	715.46	.05
.793	696.42	.05
.896	676.03	.05
.948	665.51	.05
1	655.19	.05

System: 1,4-dimethylbenzene + hexane; phases: Liquid
Fixed: Pressure, kPa = 101
Fixed: Temperature, K = 298.15
Property: Mass density, kg/m3 (Liquid); method: Vibrating tube method
Mole fraction of hexane	Mass density, kg/m3	uncertainty
0	856.59	.05
.048	847.14	.05
.098	836.82	.05
.196	816.92	.05
.292	797.23	.05
.394	776.41	.05
.492	756.57	.05
.591	736.73	.05
.692	716.48	.05
.792	696.69	.05
.892	676.71	.05
.948	665.7	.05
1	655.19	.05

System: 1,2-dimethylbenzene + hexane + 1-ethyl-3-methylpyridinium ethylsulfate; phases: Liquid mixture 1, Liquid mixture 2
Fixed: Temperature, K = 298.15
Property: Mass density, kg/m3 (Liquid mixture 1); method: Vibrating tube method
Mole fraction of hexane	Mole fraction of 1,2-dimethylbenzene	Mass density, kg/m3	uncertainty
.009	0	1217.17	.05
.015	.025	1212.66	.05
.008	.06	1207.51	.05
.008	.08	1204	.05
.004	.1	1200.94	.05
.003	.123	1196.77	.05
.004	.15	1190.78	.05
0	.208	1179.42	.05

System: 1,2-dimethylbenzene + hexane + 1-ethyl-3-methylpyridinium ethylsulfate; phases: Liquid mixture 1, Liquid mixture 2
Fixed: Pressure, kPa = 101
Fixed: Temperature, K = 298.15
Property: Mole fraction of 1,2-dimethylbenzene (Liquid mixture 1); method: Density calibration data
Mole fraction of hexane	Mole fraction of 1,2-dimethylbenzene	uncertainty
.009	0	.006
.015	.025	.006
.008	.06	.006
.008	.08	.006
.004	.1	.006
.003	.123	.006
.004	.15	.006
0	.208	.006

System: 1,2-dimethylbenzene + hexane + 1-ethyl-3-methylpyridinium ethylsulfate; phases: Liquid
Fixed: Pressure, kPa = 101
Fixed: Temperature, K = 298.15
Property: Mass density, kg/m3 (Liquid); method: Isochoric PVT measurement
Mole fraction of hexane	Mole fraction of 1,2-dimethylbenzene	Mass density, kg/m3	uncertainty
.008	.058	1207.95	.05
.008	.091	1202.14	.05
.003	.111	1198.79	.05

System: 1,2-dimethylbenzene + hexane + 1-ethyl-3-methylpyridinium ethylsulfate; phases: Liquid mixture 1, Liquid mixture 2
Fixed: Temperature, K = 298.15
Fixed: Pressure, kPa = 101.3
Property: Mole fraction of hexane (Liquid mixture 1); method: Density calibration data
Property: Mole fraction of 1,2-dimethylbenzene (Liquid mixture 2); method: Density calibration data
Property: Mole fraction of hexane (Liquid mixture 2); method: Density calibration data
Mole fraction of 1,2-dimethylbenzene	Mole fraction of hexane	uncertainty	Mole fraction of 1,2-dimethylbenzene	uncertainty	Mole fraction of hexane	uncertainty
.068	.932	.006	.017	.006	.011	.006
.131	.868	.006	.029	.006	.01	.006
.258	.742	.006	.06	.006	.009	.006
.389	.611	.006	.089	.006	.008	.006
.519	.481	.006	.115	.006	.007	.006
.655	.345	.006	.141	.006	.005	.006
.78	.22	.006	.173	.006	.004	.006
.906	.094	.006	.193	.006	.002	.006

System: 1,3-dimethylbenzene + hexane + 1-ethyl-3-methylpyridinium ethylsulfate; phases: Liquid mixture 1, Liquid mixture 2
Fixed: Temperature, K = 298.15
Property: Mass density, kg/m3 (Liquid mixture 1); method: Vibrating tube method
Mole fraction of hexane	Mole fraction of 1,3-dimethylbenzene	Mass density, kg/m3	uncertainty
.009	0	1217.17	.05
.015	.037	1210.42	.05
.012	.059	1206.82	.05
.008	.079	1203.39	.05
.004	.106	1198.75	.05
0	.161	1188.12	.05

System: 1,3-dimethylbenzene + hexane + 1-ethyl-3-methylpyridinium ethylsulfate; phases: Liquid mixture 1, Liquid mixture 2
Fixed: Pressure, kPa = 101
Fixed: Temperature, K = 298.15
Property: Mole fraction of 1,3-dimethylbenzene (Liquid mixture 1); method: Density calibration data
Mole fraction of hexane	Mole fraction of 1,3-dimethylbenzene	uncertainty
.009	0	.006
.015	.037	.006
.012	.059	.006
.008	.079	.006
.004	.106	.006
0	.161	.006

System: 1,3-dimethylbenzene + hexane + 1-ethyl-3-methylpyridinium ethylsulfate; phases: Liquid
Fixed: Pressure, kPa = 101
Fixed: Temperature, K = 298.15
Property: Mass density, kg/m3 (Liquid); method: Isochoric PVT measurement
Mole fraction of hexane	Mole fraction of 1,3-dimethylbenzene	Mass density, kg/m3	uncertainty
.008	.04	1210.72	.05
.007	.079	1203.52	.05
.003	.107	1198.36	.05

System: 1,3-dimethylbenzene + hexane + 1-ethyl-3-methylpyridinium ethylsulfate; phases: Liquid mixture 2, Liquid mixture 1
Fixed: Pressure, kPa = 101.3
Fixed: Temperature, K = 298.15
Property: Mole fraction of hexane (Liquid mixture 2); method: Density calibration data
Property: Mole fraction of 1,3-dimethylbenzene (Liquid mixture 1); method: Density calibration data
Property: Mole fraction of hexane (Liquid mixture 1); method: Density calibration data
Mole fraction of 1,3-dimethylbenzene	Mole fraction of hexane	uncertainty	Mole fraction of 1,3-dimethylbenzene	uncertainty	Mole fraction of hexane	uncertainty
.02	.014	.006	.066	.006	.934	.006
.032	.013	.006	.124	.006	.876	.006
.056	.011	.006	.26	.006	.74	.006
.073	.01	.006	.356	.006	.644	.006
.097	.008	.006	.495	.006	.505	.006
.12	.006	.006	.651	.006	.349	.006
.135	.004	.006	.783	.006	.217	.006
.143	.002	.006	.912	.006	.088	.006
