Measured thermophysical data. Isobaric (vapor+liquid) equilibrium for n-propyl acetate with 1-butanol or 2-butanol. Binary mixtures at 0.15 and 0.6 MPa
Source: Fluid Phase Equilib., 2015, 10.1016/j.fluid.2014.10.035
Compound 1: 1-butanol, C4H10O, purity 99.9%
Compound 2: 2-butanol, C4H10O, purity 99.5%
Compound 3: propyl acetate, C5H10O2, purity 99.5%

System: 1-butanol; phases: Liquid
Fixed: Pressure, kPa = 101.325
Property: Refractive index (Na D-line) (Liquid); method: Standard Abbe refractometry
Temperature, K	Refractive index (Na D-line)	uncertainty
298.15	1.3973	.0002

System: 1-butanol; phases: Liquid, Gas
Property: Boiling temperature at pressure P, K (Liquid); method: Ebulliometric method (Recirculating still)
Pressure, kPa	Boiling temperature at pressure P, K	uncertainty
4	323.05	.03
6	328.14	.03
10	337.35	.03
12	342.38	.03
16	347.15	.03
18	349.58	.03
20	352.8	.03
24	355.72	.03
28	359.18	.03
30	361.16	.03
34	363.68	.03
36	365.36	.03
41	367.86	.03
44	369.61	.03
46	371.26	.03
52	373.58	.03
54	375.03	.03
58	376.65	.03
60	377.98	.03
64	379.46	.03
70	381.45	.03
72	382.23	.03
74	383.16	.03
78	384.43	.03
82	385.82	.03
86	387.13	.03
90	388.27	.03
92	389.22	.03
94	390.13	.03
98	390.78	.03
112	393.93	.03
127	397.53	.03
162	405.13	.03
222	415.37	.03
257	420.41	.03
297	425.15	.03
317	427.37	.03
355	431.38	.03
387	434.92	.03
417	437.66	.03
445	440.13	.03
497	444.27	.03
522	446.12	.03
587	451.06	.03
625	453.47	.03
672	456.72	.03
705	458.5	.03
735	460.52	.03
785	463.16	.03
812	464.65	.03
877	468.23	.03
907	469.76	.03
947	471.75	.03
997	474.05	.03
1025	475.25	.03
1077	477.65	.03
1097	478.65	.03
1122	479.65	.03
1155	481.05	.03
1192	482.55	.03
1245	484.65	.03
1267	485.55	.03
1307	487.15	.03
1377	489.75	.03
1412	490.95	.03
1442	492.05	.03
1487	493.75	.03
1522	494.85	.03
1565	496.35	.03
1615	497.95	.03

System: 2-butanol; phases: Liquid
Fixed: Pressure, kPa = 101.325
Property: Refractive index (Na D-line) (Liquid); method: Standard Abbe refractometry
Temperature, K	Refractive index (Na D-line)	uncertainty
298.15	1.3949	.0002

System: 2-butanol; phases: Liquid, Gas
Property: Boiling temperature at pressure P, K (Liquid); method: Ebulliometric method (Recirculating still)
Pressure, kPa	Boiling temperature at pressure P, K	uncertainty
4	299.54	.03
8	313.48	.03
10	321.8	.03
14	326.86	.03
16	329.24	.03
20	333.92	.03
24	337.72	.03
26	338.63	.03
27	340.39	.03
31	342.7	.03
34	345.48	.03
36	346.65	.03
39	348.11	.03
41	349.45	.03
43	350.23	.03
45	351.56	.03
47	352.9	.03
51	354.56	.03
53	355.92	.03
55	356.95	.03
60	359.07	.03
62	359.51	.03
66	360.85	.03
69	362.27	.03
74	363.91	.03
77	365.33	.03
80	366.18	.03
83	367.65	.03
86	368.44	.03
89	369.2	.03
92	369.91	.03
94	370.64	.03
95	371.18	.03
98	371.7	.03
130	380.31	.03
165	387.27	.03
190	391.61	.03
230	397.43	.03
267	402.13	.03
290	405.16	.03
330	409.49	.03
365	413.17	.03
392	415.67	.03
410	417.08	.03
426	418.79	.03
460	421.46	.03
492	423.88	.03
517	425.99	.03
547	428.2	.03
570	429.72	.03
595	431.6	.03
630	433.88	.03
665	436.04	.03
692	437.62	.03
727	439.66	.03
762	441.75	.03
791	443.26	.03
820	444.79	.03
855	446.63	.03
886	448.23	.03
925	450.29	.03
949	451.28	.03
980	452.92	.03
1010	454.18	.03
1022	454.68	.03
1074	456.99	.03
1110	458.48	.03
1150	460.22	.03
1182	461.51	.03
1210	462.73	.03
1240	463.92	.03
1272	465.11	.03
1305	466.41	.03
1336	467.56	.03
1370	468.82	.03
1447	471.55	.03
1481	472.77	.03
1502	473.45	.03
1547	474.95	.03
1580	476.05	.03
1611	477.05	.03

System: propyl acetate; phases: Liquid
Fixed: Pressure, kPa = 101.325
Property: Refractive index (Na D-line) (Liquid); method: Standard Abbe refractometry
Temperature, K	Refractive index (Na D-line)	uncertainty
298.15	1.3821	.0002

System: propyl acetate; phases: Liquid, Gas
Property: Boiling temperature at pressure P, K (Liquid); method: Ebulliometric method (Recirculating still)
Pressure, kPa	Boiling temperature at pressure P, K	uncertainty
12	316.69	.03
18	326.27	.03
22	330.68	.03
30	338.63	.03
34	341.91	.03
36	343.81	.03
38	345.06	.03
40	346.33	.03
42	347.64	.03
48	351.34	.03
56	355.95	.03
60	357.86	.03
64	359.75	.03
70	362.64	.03
76	364.97	.03
80	367.18	.03
92	371.16	.03
98	373.18	.03
102	374.61	.03
123	381	.03
150	387.93	.03
154	388.84	.03
182	395	.03
207	399.87	.03
221	402.35	.03
258	408.49	.03
287	412.78	.03
322	417.58	.03
375	424.1	.03
394	426.32	.03
416	428.8	.03
451	432.42	.03
471	434.27	.03
515	438.55	.03
574	443.6	.03
586	444.93	.03
600	445.89	.03
627	447.95	.03
672	451.36	.03
716	454.56	.03
756	457.4	.03
776	458.81	.03
820	461.63	.03
850	463.53	.03
868	464.95	.03
906	466.95	.03
937	468.85	.03
957	470.15	.03
988	471.65	.03
1007	472.61	.03
1046	474.75	.03
1075	476.45	.03
1105	477.75	.03
1162	480.95	.03
1183	481.95	.03
1210	483.25	.03
1244	484.59	.03
1281	486.25	.03
1314	487.85	.03
1339	489.05	.03
1365	490.15	.03
1406	491.85	.03
1455	493.9	.03
1487	495.15	.03
1518	496.45	.03
1554	498.05	.03
1587	499.35	.03
1615	500.4	.03
1652	501.85	.03

System: 1-butanol + propyl acetate; phases: Liquid
Fixed: Pressure, kPa = 101.3
Fixed: Temperature, K = 298.15
Property: Mass density, kg/m3 (Liquid); method: Vibrating tube method
Mole fraction of propyl acetate	Mass density, kg/m3	uncertainty
0	805.9	.1
.0551	810.7	.1
.0981	814.4	.1
.1533	819.1	.1
.2061	823.5	.1
.245	826.7	.1
.3821	837.7	.1
.4426	842.4	.1
.5014	846.9	.1
.5976	854.1	.1
.644	857.5	.1
.6892	860.8	.1
.7523	865.3	.1
.799	868.6	.1
.8553	872.5	.1
.9459	878.7	.1
1	882.3	.1

System: 1-butanol + propyl acetate; phases: Liquid, Gas
Property: Boiling temperature at pressure P, K (Liquid); method: Ebulliometric method (Recirculating still)
Mole fraction of propyl acetate	Pressure, kPa	Boiling temperature at pressure P, K	uncertainty
0	100	390.83	.03
.024	100	389.71	.03
.042	100	389.07	.03
.061	100	388.34	.03
.083	100	387.36	.03
.122	100	385.98	.03
.177	100	383.9	.03
.264	100	381.69	.03
.295	100	380.94	.03
.322	100	380.45	.03
.361	100	379.7	.03
.368	100	379.48	.03
.395	100	379.05	.03
.413	100	378.7	.03
.433	100	378.37	.03
.462	100	378.14	.03
.538	100	377.09	.03
.549	100	376.93	.03
.598	100	376.4	.03
.61	100	376.27	.03
.617	100	376.15	.03
.652	100	375.87	.03
.712	100	375.31	.03
.766	100	375	.03
.817	100	374.9	.03
.859	100	374.81	.03
.9	100	374.74	.03
.931	100	374.7	.03
.967	100	374.67	.03
.981	100	374.65	.03
.991	100	374.62	.03
1	100	374.57	.03
0	150	402.59	.03
.007	150	402.33	.03
.025	150	401.52	.03
.054	150	400.63	.03
.073	150	399.87	.03
.095	150	399.32	.03
.112	150	398.9	.03
.14	150	398.13	.03
.215	150	396.55	.03
.272	150	395.43	.03
.316	150	394.8	.03
.398	150	393.44	.03
.423	150	393.11	.03
.436	150	392.96	.03
.448	150	392.87	.03
.453	150	392.73	.03
.48	150	392.4	.03
.508	150	392.03	.03
.54	150	391.62	.03
.572	150	391.35	.03
.603	150	390.99	.03
.662	150	390.29	.03
.714	150	389.75	.03
.783	150	388.89	.03
.82	150	388.6	.03
.869	150	388.1	.03
.885	150	387.99	.03
.901	150	387.86	.03
.917	150	387.75	.03
.93	150	387.68	.03
.942	150	387.62	.03
.954	150	387.61	.03
.966	150	387.64	.03
.978	150	387.67	.03
.99	150	387.74	.03
.996	150	387.82	.03
1	150	387.93	.03
0	600	452.24	.03
.012	600	451.7	.03
.032	600	451.38	.03
.057	600	450.94	.03
.08	600	450.62	.03
.099	600	450.19	.03
.125	600	449.89	.03
.147	600	449.71	.03
.17	600	449.37	.03
.192	600	449.09	.03
.216	600	448.8	.03
.236	600	448.63	.03
.257	600	448.48	.03
.281	600	448.33	.03
.305	600	448.09	.03
.332	600	447.77	.03
.356	600	447.58	.03
.376	600	447.42	.03
.401	600	447.25	.03
.43	600	447.04	.03
.453	600	446.9	.03
.479	600	446.75	.03
.518	600	446.57	.03
.576	600	446.3	.03
.633	600	446.01	.03
.66	600	445.95	.03
.711	600	445.82	.03
.748	600	445.73	.03
.797	600	445.68	.03
.808	600	445.68	.03
.837	600	445.69	.03
.862	600	445.7	.03
.897	600	445.73	.03
.923	600	445.76	.03
.955	600	445.8	.03
.97	600	445.84	.03
1	600	445.89	.03

System: 1-butanol + propyl acetate; phases: Gas, Liquid
Property: Mole fraction of propyl acetate (Gas); method: Density calibration data
Mole fraction of propyl acetate	Pressure, kPa	Mole fraction of propyl acetate	uncertainty
0	100	0	.002
.024	100	.072	.002
.042	100	.106	.002
.061	100	.145	.002
.083	100	.205	.002
.122	100	.273	.002
.177	100	.369	.002
.264	100	.475	.002
.295	100	.507	.002
.322	100	.53	.002
.361	100	.556	.002
.368	100	.56	.002
.395	100	.584	.002
.413	100	.599	.002
.433	100	.615	.002
.462	100	.621	.002
.538	100	.671	.002
.549	100	.678	.002
.598	100	.714	.002
.61	100	.724	.002
.617	100	.727	.002
.652	100	.748	.002
.712	100	.792	.002
.766	100	.829	.002
.817	100	.863	.002
.859	100	.894	.002
.9	100	.923	.002
.931	100	.945	.002
.967	100	.972	.002
.981	100	.984	.002
.991	100	.993	.002
1	100	1	.002
0	150	0	.002
.007	150	.019	.002
.025	150	.063	.002
.054	150	.121	.002
.073	150	.162	.002
.095	150	.204	.002
.112	150	.233	.002
.14	150	.273	.002
.215	150	.37	.002
.272	150	.427	.002
.316	150	.466	.002
.398	150	.532	.002
.423	150	.549	.002
.436	150	.558	.002
.448	150	.566	.002
.453	150	.569	.002
.48	150	.591	.002
.508	150	.612	.002
.54	150	.637	.002
.572	150	.66	.002
.603	150	.681	.002
.662	150	.724	.002
.714	150	.766	.002
.783	150	.82	.002
.82	150	.849	.002
.869	150	.887	.002
.885	150	.898	.002
.901	150	.911	.002
.917	150	.923	.002
.93	150	.935	.002
.942	150	.944	.002
.954	150	.953	.002
.966	150	.963	.002
.978	150	.975	.002
.99	150	.987	.002
.996	150	.994	.002
1	150	1	.002
0	600	0	.002
.012	600	.021	.002
.032	600	.05	.002
.057	600	.084	.002
.08	600	.113	.002
.099	600	.137	.002
.125	600	.166	.002
.147	600	.191	.002
.17	600	.218	.002
.192	600	.241	.002
.216	600	.266	.002
.236	600	.287	.002
.257	600	.308	.002
.281	600	.333	.002
.305	600	.357	.002
.332	600	.382	.002
.356	600	.404	.002
.376	600	.424	.002
.401	600	.447	.002
.43	600	.469	.002
.453	600	.487	.002
.479	600	.511	.002
.518	600	.546	.002
.576	600	.598	.002
.633	600	.647	.002
.66	600	.671	.002
.711	600	.717	.002
.748	600	.751	.002
.797	600	.796	.002
.808	600	.806	.002
.837	600	.832	.002
.862	600	.855	.002
.897	600	.889	.002
.923	600	.916	.002
.955	600	.949	.002
.97	600	.966	.002
1	600	1	.002

System: 2-butanol + propyl acetate; phases: Liquid
Fixed: Pressure, kPa = 101.3
Fixed: Temperature, K = 298.15
Property: Mass density, kg/m3 (Liquid); method: Vibrating tube method
Mole fraction of propyl acetate	Mass density, kg/m3	uncertainty
0	802.5	.1
.054	806.7	.1
.1388	813.3	.1
.1998	818.1	.1
.2512	822.2	.1
.3055	826.6	.1
.3513	830.3	.1
.4442	837.8	.1
.5488	846.2	.1
.6002	850.3	.1
.5676	847.7	.1
.7132	859.3	.1
.7623	863.2	.1
.8015	866.3	.1
.8461	869.9	.1
.9519	878.4	.1
1	882.3	.1

System: 2-butanol + propyl acetate; phases: Liquid, Gas
Property: Boiling temperature at pressure P, K (Liquid); method: Ebulliometric method (Recirculating still)
Mole fraction of propyl acetate	Pressure, kPa	Boiling temperature at pressure P, K	uncertainty
0	150	383.84	.03
.007	150	383.83	.03
.022	150	383.79	.03
.04	150	383.76	.03
.057	150	383.69	.03
.077	150	383.65	.03
.098	150	383.56	.03
.118	150	383.46	.03
.158	150	383.39	.03
.195	150	383.3	.03
.24	150	383.18	.03
.254	150	383.15	.03
.292	150	383.06	.03
.313	150	383.05	.03
.336	150	383.03	.03
.357	150	383.04	.03
.399	150	383.06	.03
.419	150	383.09	.03
.445	150	383.12	.03
.486	150	383.22	.03
.522	150	383.36	.03
.551	150	383.4	.03
.57	150	383.45	.03
.578	150	383.49	.03
.607	150	383.65	.03
.634	150	383.78	.03
.657	150	383.97	.03
.684	150	384.09	.03
.709	150	384.23	.03
.774	150	384.73	.03
.809	150	385.16	.03
.869	150	385.89	.03
.899	150	386.38	.03
.932	150	386.75	.03
.959	150	387.21	.03
.98	150	387.57	.03
1	150	387.93	.03
0	600	431.73	.03
.019	600	431.8	.03
.039	600	432	.03
.061	600	432.23	.03
.084	600	432.46	.03
.105	600	432.61	.03
.131	600	432.75	.03
.159	600	432.93	.03
.187	600	433.14	.03
.216	600	433.41	.03
.249	600	433.66	.03
.278	600	433.88	.03
.308	600	434.14	.03
.334	600	434.3	.03
.374	600	434.7	.03
.39	600	434.91	.03
.427	600	435.3	.03
.44	600	435.48	.03
.494	600	436.15	.03
.521	600	436.47	.03
.559	600	437.04	.03
.572	600	437.31	.03
.588	600	437.56	.03
.612	600	437.93	.03
.636	600	438.21	.03
.669	600	438.8	.03
.702	600	439.19	.03
.734	600	439.77	.03
.759	600	440.29	.03
.792	600	440.9	.03
.819	600	441.54	.03
.85	600	442.23	.03
.882	600	442.79	.03
.909	600	443.51	.03
.939	600	444.12	.03
.972	600	444.92	.03
.992	600	445.41	.03
1	600	445.89	.03

System: 2-butanol + propyl acetate; phases: Gas, Liquid
Property: Mole fraction of propyl acetate (Gas); method: Density calibration data
Mole fraction of propyl acetate	Pressure, kPa	Mole fraction of propyl acetate	uncertainty
0	150	0	.002
.007	150	.008	.002
.022	150	.026	.002
.04	150	.047	.002
.057	150	.067	.002
.077	150	.091	.002
.098	150	.113	.002
.118	150	.134	.002
.158	150	.176	.002
.195	150	.21	.002
.24	150	.251	.002
.254	150	.263	.002
.292	150	.298	.002
.313	150	.318	.002
.336	150	.335	.002
.357	150	.354	.002
.399	150	.389	.002
.419	150	.407	.002
.445	150	.429	.002
.486	150	.463	.002
.522	150	.494	.002
.551	150	.519	.002
.57	150	.535	.002
.578	150	.541	.002
.607	150	.565	.002
.634	150	.587	.002
.657	150	.608	.002
.684	150	.631	.002
.709	150	.654	.002
.774	150	.715	.002
.809	150	.749	.002
.869	150	.815	.002
.899	150	.85	.002
.932	150	.891	.002
.959	150	.931	.002
.98	150	.966	.002
1	150	1	.002
0	600	0	.002
.019	600	.015	.002
.039	600	.033	.002
.061	600	.052	.002
.084	600	.072	.002
.105	600	.09	.002
.131	600	.113	.002
.159	600	.137	.002
.187	600	.16	.002
.216	600	.186	.002
.249	600	.212	.002
.278	600	.238	.002
.308	600	.264	.002
.334	600	.288	.002
.374	600	.323	.002
.39	600	.334	.002
.427	600	.368	.002
.44	600	.378	.002
.494	600	.425	.002
.521	600	.45	.002
.559	600	.483	.002
.572	600	.495	.002
.588	600	.509	.002
.612	600	.531	.002
.636	600	.555	.002
.669	600	.587	.002
.702	600	.62	.002
.734	600	.653	.002
.759	600	.681	.002
.792	600	.718	.002
.819	600	.749	.002
.85	600	.788	.002
.882	600	.825	.002
.909	600	.864	.002
.939	600	.91	.002
.972	600	.953	.002
.992	600	.986	.002
1	600	1	.002
