Measured thermophysical data. Binary solid-liquid equilibrium systems containing fatty acids, fatty alcohols and trilaurin by differential scanning calorimetry
Source: Fluid Phase Equilib., 2016, 10.1016/j.fluid.2016.04.008
Compound 1: trilaurin, C39H74O6, purity 99%
Compound 2: myristic acid, C14H28O2, purity 99%
Compound 3: palmitic acid, C16H32O2, purity 99%
Compound 4: stearic acid, C18H36O2, purity 99%
Compound 5: 1-tetradecanol, C14H30O, purity 98.4%
Compound 6: 1-hexadecanol, C16H34O, purity 99%
Compound 7: 1-octadecanol, C18H38O, purity 99%

System: trilaurin; phases: Crystal, Liquid, Air at 1 atmosphere
Property: Normal melting temperature, K (Crystal); method: DSC/DTA
Normal melting temperature, K	uncertainty
320.01	.3

System: trilaurin; phases: Crystal, Liquid, Air at 1 atmosphere
Property: Normal melting temperature, K (Crystal); method: DSC/DTA
Normal melting temperature, K	uncertainty
319.67	.3

System: myristic acid; phases: Crystal, Liquid, Air at 1 atmosphere
Property: Normal melting temperature, K (Crystal); method: DSC/DTA
Normal melting temperature, K	uncertainty
327.95	.3

System: palmitic acid; phases: Crystal, Liquid, Air at 1 atmosphere
Property: Normal melting temperature, K (Crystal); method: DSC/DTA
Normal melting temperature, K	uncertainty
336.36	.3

System: stearic acid; phases: Crystal, Liquid, Air at 1 atmosphere
Property: Normal melting temperature, K (Crystal); method: DSC/DTA
Normal melting temperature, K	uncertainty
344.04	.3

System: 1-tetradecanol; phases: Crystal, Liquid, Air at 1 atmosphere
Property: Normal melting temperature, K (Crystal); method: DSC/DTA
Normal melting temperature, K	uncertainty
311.1	.3

System: 1-hexadecanol; phases: Crystal, Liquid, Air at 1 atmosphere
Property: Normal melting temperature, K (Crystal); method: DSC/DTA
Normal melting temperature, K	uncertainty
322.9	.3

System: 1-octadecanol; phases: Crystal, Liquid, Air at 1 atmosphere
Property: Normal melting temperature, K (Crystal); method: DSC/DTA
Normal melting temperature, K	uncertainty
331.34	.3

System: trilaurin + myristic acid; phases: Crystal, Crystal, Liquid, Air at 1 atmosphere
Fixed: Pressure, kPa = 101.325
Property: Eutectic temperature, K (Crystal); method: DSC/DTA
Eutectic temperature, K	uncertainty
316.04	

System: trilaurin + myristic acid; phases: Liquid, Crystal
Fixed: Pressure, kPa = 94.6
Property: Solid-liquid equilibrium temperature, K (Liquid); method: DSC/DTA
Mole fraction of trilaurin	Solid-liquid equilibrium temperature, K	uncertainty
0	327.95	
.1	325.65	
.2002	323.34	
.3002	320.17	
.3999	318.79	
.5003	316.31	

System: trilaurin + myristic acid; phases: Liquid, Crystal
Fixed: Pressure, kPa = 94.6
Property: Solid-liquid equilibrium temperature, K (Liquid); method: DSC/DTA
Mole fraction of trilaurin	Solid-liquid equilibrium temperature, K	uncertainty
.6009	317.43	
.7019	318.05	
.7993	318.66	
.9019	319.32	
1	320.01	

System: palmitic acid + trilaurin; phases: Crystal, Crystal, Liquid, Air at 1 atmosphere
Fixed: Pressure, kPa = 101.325
Property: Eutectic temperature, K (Crystal); method: DSC/DTA
Eutectic temperature, K	uncertainty
318.42	

System: palmitic acid + trilaurin; phases: Liquid, Crystal
Fixed: Pressure, kPa = 94.6
Property: Solid-liquid equilibrium temperature, K (Liquid); method: DSC/DTA
Mole fraction of trilaurin	Solid-liquid equilibrium temperature, K	uncertainty
0	336.36	
.1	334.03	
.2002	332.48	
.2994	330.39	
.4	328.74	
.4998	326.07	
.6014	322.74	
.6992	321.61	
.8	319.2	

System: palmitic acid + trilaurin; phases: Liquid, Crystal
Fixed: Pressure, kPa = 94.6
Property: Solid-liquid equilibrium temperature, K (Liquid); method: DSC/DTA
Mole fraction of trilaurin	Solid-liquid equilibrium temperature, K	uncertainty
.8979	319.7	
1	319.67	

System: stearic acid + trilaurin; phases: Crystal, Crystal, Liquid, Air at 1 atmosphere
Fixed: Pressure, kPa = 101.325
Property: Eutectic temperature, K (Crystal); method: DSC/DTA
Eutectic temperature, K	uncertainty
319.38	

System: stearic acid + trilaurin; phases: Liquid, Crystal
Fixed: Pressure, kPa = 94.6
Property: Solid-liquid equilibrium temperature, K (Liquid); method: DSC/DTA
Mole fraction of trilaurin	Solid-liquid equilibrium temperature, K	uncertainty
0	344.04	
.0999	341.25	
.199	339.8	
.3004	337.27	
.3998	335.7	
.4998	334.11	
.5993	331.17	
.6988	327.77	
.8001	326.38	
.8995	321.78	
.947	319.78	

System: stearic acid + trilaurin; phases: Liquid, Crystal
Fixed: Pressure, kPa = 94.6
Property: Solid-liquid equilibrium temperature, K (Liquid); method: DSC/DTA
Mole fraction of trilaurin	Solid-liquid equilibrium temperature, K	uncertainty
1	319.67	

System: 1-tetradecanol + trilaurin; phases: Crystal, Crystal, Liquid, Air at 1 atmosphere
Fixed: Pressure, kPa = 101.325
Property: Eutectic temperature, K (Crystal); method: DSC/DTA
Eutectic temperature, K	uncertainty
309.2	

System: 1-tetradecanol + trilaurin; phases: Liquid, Crystal
Fixed: Pressure, kPa = 94.6
Property: Solid-liquid equilibrium temperature, K (Liquid); method: DSC/DTA
Mole fraction of trilaurin	Solid-liquid equilibrium temperature, K	uncertainty
0	311.1	

System: 1-tetradecanol + trilaurin; phases: Liquid, Crystal
Fixed: Pressure, kPa = 94.6
Property: Solid-liquid equilibrium temperature, K (Liquid); method: DSC/DTA
Mole fraction of trilaurin	Solid-liquid equilibrium temperature, K	uncertainty
.0998	310.03	
.2002	312.11	
.3004	314.19	
.4005	314.98	
.5006	315.67	
.5802	316.74	
.7008	317.07	
.8015	318.21	
.9007	319.37	
1	319.67	

System: trilaurin + 1-hexadecanol; phases: Crystal, Crystal, Liquid, Air at 1 atmosphere
Fixed: Pressure, kPa = 101.325
Property: Eutectic temperature, K (Crystal); method: DSC/DTA
Eutectic temperature, K	uncertainty
316.14	

System: trilaurin + 1-hexadecanol; phases: Liquid, Crystal
Fixed: Pressure, kPa = 94.6
Property: Solid-liquid equilibrium temperature, K (Liquid); method: DSC/DTA
Mole fraction of trilaurin	Solid-liquid equilibrium temperature, K	uncertainty
0	322.9	
.0998	321.87	
.2002	320.29	
.3008	318.8	
.4002	318.43	
.5024	316.39	

System: trilaurin + 1-hexadecanol; phases: Liquid, Crystal
Fixed: Pressure, kPa = 94.6
Property: Solid-liquid equilibrium temperature, K (Liquid); method: DSC/DTA
Mole fraction of trilaurin	Solid-liquid equilibrium temperature, K	uncertainty
.6003	317.05	
.7001	317.92	
.8008	318.56	
.901	318.81	
1	319.67	

System: 1-octadecanol + trilaurin; phases: Crystal, Crystal, Liquid, Air at 1 atmosphere
Fixed: Pressure, kPa = 101.325
Property: Eutectic temperature, K (Crystal); method: DSC/DTA
Eutectic temperature, K	uncertainty
318.45	

System: 1-octadecanol + trilaurin; phases: Liquid, Crystal
Fixed: Pressure, kPa = 94.6
Property: Solid-liquid equilibrium temperature, K (Liquid); method: DSC/DTA
Mole fraction of trilaurin	Solid-liquid equilibrium temperature, K	uncertainty
0	331.34	
.1003	330.1	
.1988	329.07	
.2999	327.66	
.4006	326.48	
.4999	324.27	
.601	322.67	
.6985	319.05	
.7996	318.48	

System: 1-octadecanol + trilaurin; phases: Liquid, Crystal
Fixed: Pressure, kPa = 94.6
Property: Solid-liquid equilibrium temperature, K (Liquid); method: DSC/DTA
Mole fraction of trilaurin	Solid-liquid equilibrium temperature, K	uncertainty
.899	319.38	
1	319.67	
