Measured thermophysical data. In situ measurement of liquid-liquid equilibria by medium field nuclear magnetic resonance
Source: Fluid Phase Equilib., 2017, 10.1016/j.fluid.2017.01.027
Compound 1: cyclohexane, C6H12, purity 99.9%
Compound 2: diethyl ether, C4H10O, purity 99.5%
Compound 3: acetic anhydride, C4H6O3, purity 99.0%
Compound 4: deuterium oxide, D2O, purity 99.9%
Compound 5: acetonitrile, C2H3N, purity 99.9%
Compound 6: acetic acid, C2H4O2, purity 99.8%
Compound 7: methanol, CH4O, purity 99.8%
Compound 8: ethanol, C2H6O, purity 99.9%
Compound 9: toluene, C7H8, purity 99.9%
Compound 10: acetone, C3H6O, purity 99.9%
Compound 11: water, H2O, purity 99.8%

System: diethyl ether + methanol + water; phases: Liquid mixture 1, Liquid mixture 2
Fixed: Temperature, K = 295.15
Fixed: Pressure, kPa = 101
Property: Mole fraction of diethyl ether (Liquid mixture 1); method: Other
Property: Mole fraction of methanol (Liquid mixture 2); method: Other
Property: Mole fraction of diethyl ether (Liquid mixture 2); method: Other
Mole fraction of methanol	Mole fraction of diethyl ether	uncertainty	Mole fraction of methanol	uncertainty	Mole fraction of diethyl ether	uncertainty
.037	.89	.008	.069	.008	.019	.008
.098	.819	.008	.13	.008	.026	.008
.15	.75	.008	.181	.008	.038	.008
.198	.666	.008	.222	.008	.057	.008

System: acetone + toluene + water; phases: Liquid mixture 1, Liquid mixture 2
Fixed: Temperature, K = 295.15
Fixed: Pressure, kPa = 101
Property: Mole fraction of toluene (Liquid mixture 1); method: Other
Property: Mole fraction of acetone (Liquid mixture 2); method: Other
Property: Mole fraction of toluene (Liquid mixture 2); method: Other
Mole fraction of acetone	Mole fraction of toluene	uncertainty	Mole fraction of acetone	uncertainty	Mole fraction of toluene	uncertainty
0	.994	.008	0	.008	0	.008
.571	.156	.008	.267	.008	.01	.008
.09	.898	.008	.021	.008	0	.008
.17	.81	.008	.039	.008	0	.008
.252	.718	.008	.057	.008	.001	.008
.336	.612	.008	.078	.008	.001	.008
.409	.525	.008	.101	.008	.001	.008
.474	.435	.008	.126	.008	.001	.008
.545	.317	.008	.164	.008	.002	.008
.587	.201	.008	.232	.008	.006	.008

System: ethanol + acetonitrile + cyclohexane; phases: Liquid mixture 2, Liquid mixture 1
Fixed: Temperature, K = 295.15
Fixed: Pressure, kPa = 101
Property: Mole fraction of ethanol (Liquid mixture 2); method: Other
Property: Mole fraction of ethanol (Liquid mixture 1); method: Other
Property: Mole fraction of acetonitrile (Liquid mixture 1); method: Other
Mole fraction of acetonitrile	Mole fraction of ethanol	uncertainty	Mole fraction of ethanol	uncertainty	Mole fraction of acetonitrile	uncertainty
.571	.267	.02	.07	.02	.082	.02
.453	.335	.02	.1	.02	.087	.02
.826	.087	.02	.017	.02	.049	.02
.715	.179	.02	.032	.02	.052	.02

System: ethanol + acetonitrile + cyclohexane; phases: Liquid mixture 2, Liquid mixture 1
Fixed: Temperature, K = 295.15
Fixed: Pressure, kPa = 101
Property: Mole fraction of ethanol (Liquid mixture 2); method: Other
Property: Mole fraction of ethanol (Liquid mixture 1); method: Other
Property: Mole fraction of acetonitrile (Liquid mixture 1); method: Other
Mole fraction of acetonitrile	Mole fraction of ethanol	uncertainty	Mole fraction of ethanol	uncertainty	Mole fraction of acetonitrile	uncertainty
.71	.18	.02	.029	.02	.068	.02
.552	.28	.02	.071	.02	.093	.02
.464	.332	.02	.11	.02	.097	.02

System: ethanol + acetonitrile + cyclohexane; phases: Liquid mixture 1, Liquid mixture 2
Fixed: Temperature, K = 295.15
Fixed: Pressure, kPa = 101
Property: Mole fraction of acetonitrile (Liquid mixture 1); method: Other
Property: Mole fraction of acetonitrile (Liquid mixture 2); method: Other
Property: Mole fraction of ethanol (Liquid mixture 2); method: Other
Mole fraction of ethanol	Mole fraction of acetonitrile	uncertainty	Mole fraction of acetonitrile	uncertainty	Mole fraction of ethanol	uncertainty
.019	.048	.008	.827	.008	.085	.008
.026	.058	.008	.708	.008	.175	.008
.045	.067	.008	.631	.008	.235	.008
.066	.072	.008	.587	.008	.276	.008
.097	.077	.008	.504	.008	.328	.008
.157	.101	.008	.387	.008	.368	.008
.228	.162	.008	.285	.008	.35	.008

System: diethyl ether + acetone + water; phases: Liquid mixture 1, Liquid mixture 2
Fixed: Temperature, K = 295.15
Fixed: Pressure, kPa = 101
Property: Mole fraction of acetone (Liquid mixture 1); method: Other
Property: Mole fraction of acetone (Liquid mixture 2); method: Other
Property: Mole fraction of diethyl ether (Liquid mixture 2); method: Other
Mole fraction of diethyl ether	Mole fraction of acetone	uncertainty	Mole fraction of acetone	uncertainty	Mole fraction of diethyl ether	uncertainty
.826	.1	.008	.029	.008	.017	.008
.731	.187	.008	.052	.008	.022	.008
.631	.275	.008	.075	.008	.024	.008
.441	.361	.008	.12	.008	.029	.008
.376	.389	.008	.148	.008	.035	.008
