Measured thermophysical data. Liquid liquid equilibrium of ternary systems 1-octyl-3-methylimidazolium hexafluorophosphate + aromatic + aliphatic hydrocarbons
Source: Fluid Phase Equilib., 2010, 10.1016/j.fluid.2010.01.026
Compound 1: 1-octyl-3-methylimidazolium hexafluorophosphate, C12H23F6N2P, purity 99.9%
Compound 2: benzene, C6H6, purity 99%
Compound 3: toluene, C7H8, purity 99.8%
Compound 4: 1,3-dimethylbenzene, C8H10, purity 99%
Compound 5: nonane, C9H20, purity 99%
Compound 6: undecane, C11H24, purity 99%
Compound 7: water, H2O, purity 99.8%

System: 1-octyl-3-methylimidazolium hexafluorophosphate; phases: Liquid
Fixed: Pressure, kPa = 101.325
Property: Mass density, kg/m3 (Liquid); method: Vibrating tube method
Temperature, K	Mass density, kg/m3	uncertainty
293.15	1234.551	.005

System: benzene + nonane + 1-octyl-3-methylimidazolium hexafluorophosphate; phases: Liquid mixture 1, Liquid mixture 2
Fixed: Temperature, K = 298.15
Property: Mass density, kg/m3 (Liquid mixture 1); method: Vibrating tube method
Mole fraction of nonane	Mole fraction of benzene	Mass density, kg/m3	uncertainty
.2868	.6935	802.863	.005
.261	.7219	808.412	.005
.4481	.5373	768.521	.005
.5332	.4506	755.893	.005
.1694	.8287	818.919	.005
.6387	.3504	742.652	.005
.7928	.1916	730.424	.005
.0797	.1912	1184.467	.005
.0835	.1514	1186.952	.005
.0725	.3612	1160.925	.005

System: benzene + nonane + 1-octyl-3-methylimidazolium hexafluorophosphate; phases: Liquid mixture 1, Liquid mixture 2
Fixed: Temperature, K = 298.15
Property: Mole fraction of 1-octyl-3-methylimidazolium hexafluorophosphate (Liquid mixture 1); method: UV spectrophotometry
Mole fraction of nonane	Mole fraction of benzene	Mole fraction of 1-octyl-3-methylimidazolium hexafluorophosphate	uncertainty
.2868	.6935	.0197	.001
.261	.7219	.0171	.001
.4481	.5373	.0146	.001
.5332	.4506	.0162	.001
.1694	.8287	.0019	.001
.6387	.3504	.0109	.001
.7928	.1916	.0156	.001
.0797	.1912	.7291	.001
.0835	.1514	.7651	.001
.0725	.3612	.5663	.001

System: benzene + nonane + 1-octyl-3-methylimidazolium hexafluorophosphate; phases: Liquid mixture 1, Liquid mixture 2
Fixed: Pressure, kPa = 101.3
Property: Mole fraction of nonane (Liquid mixture 1); method: Density calibration data
Property: Mole fraction of benzene (Liquid mixture 2); method: Density calibration data
Property: Mole fraction of nonane (Liquid mixture 2); method: Density calibration data
Temperature, K	Mole fraction of benzene	Mole fraction of nonane	uncertainty	Mole fraction of benzene	uncertainty	Mole fraction of nonane	uncertainty
298.15	.516	.4714	.001	.168	.001	.0726	.001
298.15	.842	.1496	.001	.299	.001	.0685	.001
298.15	.867	.1268	.001	.417	.001	.0569	.001
298.15	.879	.1142	.001	.475	.001	.0389	.001

System: toluene + nonane + 1-octyl-3-methylimidazolium hexafluorophosphate; phases: Liquid mixture 1, Liquid mixture 2
Fixed: Temperature, K = 298.15
Property: Mass density, kg/m3 (Liquid mixture 1); method: Vibrating tube method
Mole fraction of nonane	Mole fraction of toluene	Mass density, kg/m3	uncertainty
.267	.7305	803.731	.005
.2555	.741	807.26	.005
.1135	.8855	836.056	.005
.2534	.7448	804.102	.005
.5622	.4246	759.095	.005
.176	.8197	823.264	.005
.6432	.345	749.815	.005
.0048	.9948	861.469	.005
.0782	.4129	1173.565	.005
.1297	.0299	1194.098	.005

System: toluene + nonane + 1-octyl-3-methylimidazolium hexafluorophosphate; phases: Liquid mixture 1, Liquid mixture 2
Fixed: Temperature, K = 298.15
Property: Mole fraction of 1-octyl-3-methylimidazolium hexafluorophosphate (Liquid mixture 1); method: UV spectrophotometry
Mole fraction of nonane	Mole fraction of toluene	Mole fraction of 1-octyl-3-methylimidazolium hexafluorophosphate	uncertainty
.267	.7305	.0025	.001
.2555	.741	.0035	.001
.1135	.8855	.001	.001
.2534	.7448	.0017	.001
.5622	.4246	.0132	.001
.176	.8197	.0043	.001
.6432	.345	.0118	.001
.0048	.9948	.0004	.001
.0782	.4129	.5089	.001
.1297	.0299	.8403	.001

System: toluene + nonane + 1-octyl-3-methylimidazolium hexafluorophosphate; phases: Liquid mixture 1, Liquid mixture 2
Property: Mole fraction of nonane (Liquid mixture 1); method: Density calibration data
Property: Mole fraction of toluene (Liquid mixture 2); method: Density calibration data
Property: Mole fraction of nonane (Liquid mixture 2); method: Density calibration data
Temperature, K	Pressure, kPa	Mole fraction of toluene	Mole fraction of nonane	uncertainty	Mole fraction of toluene	uncertainty	Mole fraction of nonane	uncertainty
298.15	101.3	.6	.3863	.001	.377	.001	.0984	.001
298.15	101.3	.216	.7457	.001	.18	.001	.1121	.001
298.15	101.3	.654	.3405	.001	.522	.001	.0793	.001
298.15	101.3	.792	.207	.001	.5777	.001	.0637	.001

System: 1,3-dimethylbenzene + nonane + 1-octyl-3-methylimidazolium hexafluorophosphate; phases: Liquid mixture 1, Liquid mixture 2
Fixed: Temperature, K = 298.15
Property: Mass density, kg/m3 (Liquid mixture 1); method: Vibrating tube method
Mole fraction of nonane	Mole fraction of 1,3-dimethylbenzene	Mass density, kg/m3	uncertainty
.1255	.8708	834.297	.005
.3218	.6712	799.646	.005
.1154	.8795	835.816	.005
.3068	.6895	802.126	.005
.518	.4671	769.268	.005
.6577	.3189	750.539	.005
.8197	.1456	729.69	.005
.0667	.4458	1122.4667	.005

System: 1,3-dimethylbenzene + nonane + 1-octyl-3-methylimidazolium hexafluorophosphate; phases: Liquid mixture 1, Liquid mixture 2
Fixed: Temperature, K = 298.15
Property: Mole fraction of 1-octyl-3-methylimidazolium hexafluorophosphate (Liquid mixture 1); method: UV spectrophotometry
Mole fraction of nonane	Mole fraction of 1,3-dimethylbenzene	Mole fraction of 1-octyl-3-methylimidazolium hexafluorophosphate	uncertainty
.1255	.8708	.0037	.001
.3218	.6712	.007	.001
.1154	.8795	.0051	.001
.3068	.6895	.0037	.001
.518	.4671	.0149	.001
.6577	.3189	.0233	.001
.8197	.1456	.0347	.001
.0667	.4458	.4875	.001

System: 1,3-dimethylbenzene + nonane + 1-octyl-3-methylimidazolium hexafluorophosphate; phases: Liquid mixture 1, Liquid mixture 2
Property: Mole fraction of nonane (Liquid mixture 1); method: Density calibration data
Property: Mole fraction of 1,3-dimethylbenzene (Liquid mixture 2); method: Density calibration data
Property: Mole fraction of nonane (Liquid mixture 2); method: Density calibration data
Temperature, K	Pressure, kPa	Mole fraction of 1,3-dimethylbenzene	Mole fraction of nonane	uncertainty	Mole fraction of 1,3-dimethylbenzene	uncertainty	Mole fraction of nonane	uncertainty
298.15	101.3	.713	.2798	.001	.366	.001	.0836	.001
298.15	101.3	.908	.0903	.001	.811	.001	.0035	.001
298.15	101.3	.805	.1853	.001	.542	.001	.0483	.001
298.15	101.3	.402	.5692	.001	.32	.001	.0913	.001

System: benzene + undecane + 1-octyl-3-methylimidazolium hexafluorophosphate; phases: Liquid mixture 1, Liquid mixture 2
Fixed: Temperature, K = 298.15
Property: Mass density, kg/m3 (Liquid mixture 1); method: Vibrating tube method
Mole fraction of undecane	Mole fraction of benzene	Mass density, kg/m3	uncertainty
.2101	.7756	815.125	.005
.1944	.7966	818.714	.005
.1442	.848	831.596	.005
.5145	.4698	771.265	.005
.6083	.364	761.908	.005
.1655	.8274	827.981	.005
.4152	.5703	782.291	.005
.0194	.6128	1112.678	.005

System: benzene + undecane + 1-octyl-3-methylimidazolium hexafluorophosphate; phases: Liquid mixture 1, Liquid mixture 2
Fixed: Temperature, K = 298.15
Property: Mole fraction of 1-octyl-3-methylimidazolium hexafluorophosphate (Liquid mixture 1); method: UV spectrophotometry
Mole fraction of undecane	Mole fraction of benzene	Mole fraction of 1-octyl-3-methylimidazolium hexafluorophosphate	uncertainty
.2101	.7756	.0144	.001
.1944	.7966	.009	.001
.1442	.848	.0078	.001
.5145	.4698	.0157	.001
.6083	.364	.0278	.001
.1655	.8274	.0071	.001
.4152	.5703	.0144	.001
.0194	.6128	.3678	.001

System: benzene + undecane + 1-octyl-3-methylimidazolium hexafluorophosphate; phases: Liquid mixture 1, Liquid mixture 2
Property: Mole fraction of undecane (Liquid mixture 1); method: Density calibration data
Property: Mole fraction of benzene (Liquid mixture 2); method: Density calibration data
Property: Mole fraction of undecane (Liquid mixture 2); method: Density calibration data
Temperature, K	Pressure, kPa	Mole fraction of benzene	Mole fraction of undecane	uncertainty	Mole fraction of benzene	uncertainty	Mole fraction of undecane	uncertainty
298.15	101.3	.829	.1639	.001	.652	.001	.0219	.001
298.15	101.3	.755	.2341	.001	.565	.001	.0307	.001
298.15	101.3	.882	.1052	.001	.789	.001	.0319	.001
298.15	101.3	.856	.1327	.001	.745	.001	.0238	.001

System: toluene + undecane + 1-octyl-3-methylimidazolium hexafluorophosphate; phases: Liquid mixture 1, Liquid mixture 2
Fixed: Temperature, K = 298.15
Property: Mass density, kg/m3 (Liquid mixture 1); method: Vibrating tube method
Mole fraction of undecane	Mole fraction of toluene	Mass density, kg/m3	uncertainty
.2319	.7608	815.878	.005
.1531	.8429	828.582	.005
.1225	.8735	834.14	.005
.1773	.819	825.611	.005
.3753	.6058	792.316	.005
.6367	.3026	761.925	.005
.0584	.4477	1138.065	.005
.4315	.5436	788.113	.005
.0501	.4931	1136.216	.005
.0641	.3725	1139.983	.005

System: toluene + undecane + 1-octyl-3-methylimidazolium hexafluorophosphate; phases: Liquid mixture 1, Liquid mixture 2
Fixed: Temperature, K = 298.15
Property: Mole fraction of 1-octyl-3-methylimidazolium hexafluorophosphate (Liquid mixture 1); method: UV spectrophotometry
Mole fraction of undecane	Mole fraction of toluene	Mole fraction of 1-octyl-3-methylimidazolium hexafluorophosphate	uncertainty
.2319	.7608	.0073	.001
.1531	.8429	.004	.001
.1225	.8735	.004	.001
.1773	.819	.0036	.001
.3753	.6058	.0189	.001
.6367	.3026	.0607	.001
.0584	.4477	.4939	.001
.4315	.5436	.0249	.001
.0501	.4931	.4568	.001
.0641	.3725	.5634	.001

System: toluene + undecane + 1-octyl-3-methylimidazolium hexafluorophosphate; phases: Liquid mixture 1, Liquid mixture 2
Property: Mole fraction of undecane (Liquid mixture 1); method: Density calibration data
Property: Mole fraction of toluene (Liquid mixture 2); method: Density calibration data
Property: Mole fraction of undecane (Liquid mixture 2); method: Density calibration data
Temperature, K	Pressure, kPa	Mole fraction of toluene	Mole fraction of undecane	uncertainty	Mole fraction of toluene	uncertainty	Mole fraction of undecane	uncertainty
298.15	101.3	.733	.2534	.001	.414	.001	.0529	.001
298.15	101.3	.697	.3004	.001	.266	.001	.0766	.001
298.15	101.3	.568	.413	.001	.109	.001	.0979	.001
298.15	101.3	.808	.1907	.001	.44	.001	.0561	.001
298.15	101.3	.136	.8037	.001	.0634	.001	.1087	.001

System: 1,3-dimethylbenzene + undecane + 1-octyl-3-methylimidazolium hexafluorophosphate; phases: Liquid mixture 1, Liquid mixture 2
Fixed: Temperature, K = 298.15
Property: Mass density, kg/m3 (Liquid mixture 1); method: Vibrating tube method
Mole fraction of undecane	Mole fraction of 1,3-dimethylbenzene	Mass density, kg/m3	uncertainty
.2032	.7932	821.488	.005
.2886	.7037	810.848	.005
.2601	.7338	813.087	.005
.3372	.6567	801.446	.005
.588	.3951	770.727	.005
.4848	.5056	780.494	.005
.0667	.1168	1256.439	.005
.0483	.2064	1219.643	.005
.0501	.2657	1203.146	.005

System: 1,3-dimethylbenzene + undecane + 1-octyl-3-methylimidazolium hexafluorophosphate; phases: Liquid mixture 1, Liquid mixture 2
Fixed: Temperature, K = 298.15
Property: Mole fraction of 1-octyl-3-methylimidazolium hexafluorophosphate (Liquid mixture 1); method: UV spectrophotometry
Mole fraction of undecane	Mole fraction of 1,3-dimethylbenzene	Mole fraction of 1-octyl-3-methylimidazolium hexafluorophosphate	uncertainty
.2032	.7932	.0035	.001
.2886	.7037	.0077	.001
.2601	.7338	.006	.001
.3372	.6567	.006	.001
.588	.3951	.0169	.001
.4848	.5056	.0096	.001
.0667	.1168	.8165	.001
.0483	.2064	.7453	.001
.0501	.2657	.6842	.001

System: 1,3-dimethylbenzene + undecane + 1-octyl-3-methylimidazolium hexafluorophosphate; phases: Liquid mixture 1, Liquid mixture 2
Property: Mole fraction of undecane (Liquid mixture 1); method: Density data calibration
Property: Mole fraction of 1,3-dimethylbenzene (Liquid mixture 2); method: Density data calibration
Property: Mole fraction of undecane (Liquid mixture 2); method: Density data calibration
Temperature, K	Pressure, kPa	Mole fraction of 1,3-dimethylbenzene	Mole fraction of undecane	uncertainty	Mole fraction of 1,3-dimethylbenzene	uncertainty	Mole fraction of undecane	uncertainty
298.15	101.3	.235	.7447	.001	.15	.001	.0547	.001
298.15	101.3	.597	.3998	.001	.309	.001	.0349	.001
298.15	101.3	.647	.3081	.001	.406	.001	.0139	.001
298.15	101.3	.827	.1676	.001	.479	.001	.0119	.001
298.15	101.3	.865	.1327	.001	.52	.001	.0118	.001
