Measured thermophysical data. Solubility of carbon dioxide in ammonium based CO2-inducedionic liquids
Source: Fluid Phase Equilib., 2013, 10.1016/j.fluid.2013.06.011
Compound 1: tetrahexylammonium bromide, C24H52BrN, purity 99%
Compound 2: tetrabutylammonium tetrafluoroborate, C16H36BF4N, purity 97%
Compound 3: trioctylmethylammonium tosylate, C32H61NO3S, purity 97%
Compound 4: didodecyldimethylammonium saccharine, C33H60N2O3S, purity 97%
Compound 5: methyltrioctylammonium triflate, C26H54F3NO3S, purity 98%
Compound 6: carbon dioxide, CO2, purity 99.98%

System: carbon dioxide + trioctylmethylammonium tosylate; phases: Liquid, Gas
Property: Mole fraction of carbon dioxide (Liquid); method: Phase equilibration
Temperature, K	Pressure, kPa	Mole fraction of carbon dioxide	uncertainty
347.2	5500	.66	.02
347.2	10000	.69	.02
347.2	12000	.72	.02
347.2	15000	.75	.02
329.2	10000	.75	.02
369.2	15000	.75	.02

System: carbon dioxide + methyltrioctylammonium triflate; phases: Liquid, Gas
Property: Mole fraction of carbon dioxide (Liquid); method: Phase equilibration
Temperature, K	Pressure, kPa	Mole fraction of carbon dioxide	uncertainty
329.2	3700	.57	.02
329.2	10000	.74	.02
329.2	12000	.79	.02
329.2	15000	.8	.02
347.2	10000	.69	.02
369.2	15000	.7	.02

System: didodecyldimethylammonium saccharine + carbon dioxide; phases: Liquid, Gas
Property: Mole fraction of carbon dioxide (Liquid); method: Phase equilibration
Temperature, K	Pressure, kPa	Mole fraction of carbon dioxide	uncertainty
369.2	15000	.79	.02

System: carbon dioxide + tetrahexylammonium bromide; phases: Liquid, Gas
Property: Mole fraction of carbon dioxide (Liquid); method: Phase equilibration
Temperature, K	Pressure, kPa	Mole fraction of carbon dioxide	uncertainty
369.2	15000	.76	.02

System: carbon dioxide + tetrabutylammonium tetrafluoroborate; phases: Liquid, Gas
Property: Mole fraction of carbon dioxide (Liquid); method: Phase equilibration
Temperature, K	Pressure, kPa	Mole fraction of carbon dioxide	uncertainty
369.2	15000	.57	.02
