Measured thermophysical data. Excess molar enthalpies for binary mixtures of n-propanol, acetic acid, and n-propyl acetate at 313.15 K and atmospheric pressure
Source: Fluid Phase Equilib., 2014, 10.1016/j.fluid.2014.08.022
Compound 1: n-propanol, C3H8O, purity 99.7%
Compound 2: acetic acid, C2H4O2, purity 99.8%
Compound 3: n-propyl acetate, C5H10O2, purity 99.9%

System: acetic acid + n-propanol; phases: Liquid
Fixed: Pressure, kPa = 101
Fixed: Temperature, K = 313.15
Property: Excess molar enthalpy (molar enthalpy of mixing), kJ/mol (Liquid); method: Calvet calorimetry
Mole fraction of n-propanol	Excess molar enthalpy (molar enthalpy of mixing), kJ/mol	uncertainty
.0488	.122	.00366
.0507	.126	.00378
.1002	.218	.00654
.101	.219	.00657
.2002	.338	.01014
.2005	.338	.01014
.2951	.389	.01167
.2964	.39	.0117
.4	.408	.01224
.4001	.409	.01227
.4995	.393	.01179
.5006	.392	.01176
.5994	.358	.01074
.6	.359	.01077
.6998	.307	.00921
.6999	.307	.00921
.7991	.237	.00711
.7996	.236	.00708
.8989	.137	.00411
.8997	.136	.00408
.9503	.073	.00219
.9511	.0692	.002076

System: acetic acid + n-propyl acetate; phases: Liquid
Fixed: Pressure, kPa = 101
Fixed: Temperature, K = 313.15
Property: Excess molar enthalpy (molar enthalpy of mixing), kJ/mol (Liquid); method: Calvet calorimetry
Mole fraction of n-propyl acetate	Excess molar enthalpy (molar enthalpy of mixing), kJ/mol	uncertainty
.0502	-.0156	-.000468
.0513	-.0157	-.000471
.1002	-.0241	-.000723
.1003	-.0239	-.000717
.1999	-.0263	-.000789
.1999	-.0262	-.000786
.2996	-.016	-.00048
.2999	-.0166	-.000498
.3996	-.001	-.00003
.4007	-.0007	-.000021
.4997	.0139	.000417
.5004	.0138	.000414
.5998	.027	.00081
.6003	.0274	.000822
.6999	.0391	.001173
.6999	.0388	.001164
.7	.0394	.001182
.7992	.0406	.001218
.7999	.0405	.001215
.8006	.0408	.001224
.897	.028	.00084
.8978	.0291	.000873
.9496	.0184	.000552
.9497	.0174	.000522

System: n-propanol + n-propyl acetate; phases: Liquid
Fixed: Pressure, kPa = 101
Fixed: Temperature, K = 313.15
Property: Excess molar enthalpy (molar enthalpy of mixing), kJ/mol (Liquid); method: Calvet calorimetry
Mole fraction of n-propyl acetate	Excess molar enthalpy (molar enthalpy of mixing), kJ/mol	uncertainty
.0494	.278	.00834
.0504	.282	.00846
.099	.527	.01581
.1003	.529	.01587
.2002	.938	.02814
.2005	.931	.02793
.2994	1.208	.03624
.2995	1.216	.03648
.4004	1.395	.04185
.4996	1.482	.04446
.5	1.468	.04404
.5959	1.447	.04341
.5998	1.447	.04341
.6987	1.313	.03939
.6988	1.303	.03909
.7995	1.042	.03126
.8018	1.048	.03144
.897	.633	.01899
.9005	.622	.01866
.9482	.349	.01047
.95	.333	.00999
