Measured thermophysical data. Measurement and calculation of solid-liquid phase equilibrium for ternary 4-chlorophthalic anhydride + 3-chlorophthalic anhydride + acetone system
Source: Fluid Phase Equilib., 2013, 10.1016/j.fluid.2013.08.032
Compound 1: acetone, C3H6O, purity 99.9%
Compound 2: 4-chlorophthalic anhydride, C8H3ClO3, purity 99.34%
Compound 3: 3-chlorophthalic anhydride, C8H3ClO3, purity 99.81%

System: acetone + 3-chlorophthalic anhydride + 4-chlorophthalic anhydride; phases: Liquid, Crystal
Fixed: Pressure, kPa = 101
Property: Mass fraction of 4-chlorophthalic anhydride (Liquid); method: Isothermal Solution Saturation Method
Temperature, K	Mass fraction of 3-chlorophthalic anhydride	Mass fraction of 4-chlorophthalic anhydride	uncertainty
283.2	.3865	0	0
283.2	.351	.071	.001491
283.2	.3229	.1381	.0029001
283.2	.291	.2069	.0043449
283.2	.2686	.2747	.0057687
298.2	.4676	0	0
298.2	.4544	.0319	.0006699
298.2	.4375	.0703	.0014763
298.2	.4183	.1061	.0022281
298.2	.4014	.1445	.0030345
298.2	.3858	.1891	.0039711
298.2	.3672	.2337	.0049077
298.2	.3483	.2868	.0060228
298.2	.3335	.3311	.0069531
308.2	.5264	0	0
308.2	.5032	.0553	.0011613
308.2	.4883	.0914	.0019194
308.2	.4714	.1318	.0027678
308.2	.4502	.1892	.0039732
308.2	.4245	.2611	.0054831
308.2	.4098	.3037	.0063777
308.2	.3864	.3779	.0079359
308.2	.3631	.4459	.0093639
323.2	.6356	0	0
323.2	.6134	.0573	.0012033
323.2	.5837	.1211	.0025431
323.2	.5561	.1806	.0037926
323.2	.5264	.2464	.0051744
323.2	.4925	.3206	.0067326
323.2	.4619	.3908	.0082068
323.2	.4375	.4612	.0096852

System: acetone + 3-chlorophthalic anhydride + 4-chlorophthalic anhydride; phases: Liquid, Crystal, Crystal
Property: Mass fraction of 4-chlorophthalic anhydride (Liquid); method: Isothermal Solution Saturation Method
Temperature, K	Mass fraction of 3-chlorophthalic anhydride	Mass fraction of 4-chlorophthalic anhydride	uncertainty
283.2	.2549	.3333	.0069993
298.2	.3164	.3736	.0078456
308.2	.3314	.4629	.0097209
323.2	.4287	.5179	.0108759

System: acetone + 3-chlorophthalic anhydride + 4-chlorophthalic anhydride; phases: Liquid, Crystal
Fixed: Pressure, kPa = 101
Property: Mass fraction of 4-chlorophthalic anhydride (Liquid); method: Isothermal Solution Saturation Method
Temperature, K	Mass fraction of 3-chlorophthalic anhydride	Mass fraction of 4-chlorophthalic anhydride	uncertainty
283.2	.1957	.3468	.0072828
283.2	.1403	.3587	.0075327
283.2	.0887	.3823	.0080283
283.2	.0514	.4098	.0086058
283.2	0	.4419	.0092799
298.2	.2867	.3842	.0080682
298.2	.2356	.4013	.0084273
298.2	.1871	.4287	.0090027
298.2	.1233	.4671	.0098091
298.2	.0768	.5009	.0105189
298.2	.0469	.5244	.0110124
298.2	0	.5585	.0117285
308.2	.2868	.4776	.0100296
308.2	.2272	.5075	.0106575
308.2	.1871	.5286	.0111006
308.2	.1341	.5563	.0116823
308.2	.0768	.5944	.0124824
308.2	.0469	.6156	.0129276
308.2	0	.6477	.0136017
323.2	.3397	.5583	.0117243
323.2	.2718	.5944	.0124824
323.2	.2103	.6348	.0133308
323.2	.1552	.6667	.0140007
323.2	.1022	.6941	.0145761
323.2	.0533	.7409	.0155589
323.2	0	.7743	.0162603
