Measured thermophysical data. Activity coefficients at infinite dilution of organic solutes in the ionic liquid 1-ethyl-3-methylimidazolium methanesulfonate
Source: Fluid Phase Equilib., 2010, 10.1016/j.fluid.2010.10.008
Compound 1: 1-ethyl-3-methylimidazolium methanesulfonate, C7H14N2O3S, purity 99%
Compound 2: heptane, C7H16, purity 99%
Compound 3: octane, C8H18, purity 99%
Compound 4: 1-octene, C8H16, purity 99%
Compound 5: cyclohexane, C6H12, purity 99%
Compound 6: methylcyclohexane, C7H14, purity 99%
Compound 7: ethylcyclohexane, C8H16, purity 99%
Compound 8: benzene, C6H6, purity 99%
Compound 9: toluene, C7H8, purity 99%
Compound 10: ethylbenzene, C8H10, purity 99%
Compound 11: 1,3-dimethylbenzene, C8H10, purity 99%
Compound 12: methanol, CH4O, purity 99%
Compound 13: ethanol, C2H6O, purity 99%
Compound 14: 1-propanol, C3H8O, purity 99%
Compound 15: 2-propanol, C3H8O, purity 99%
Compound 16: 1,2-dimethoxyethane, C4H10O2, purity 99%
Compound 17: 1-methyl-1-(1-methylethoxy)ethane, C6H14O, purity 99%
Compound 18: 1,1-dimethylethyl methyl ether, C5H12O, purity 99%
Compound 19: tetrahydrofuran, C4H8O, purity 99%
Compound 20: methyl ethanoate, C3H6O2, purity 99%
Compound 21: ethyl ethanoate, C4H8O2, purity 99%
Compound 22: acetone, C3H6O, purity 99%
Compound 23: butanone, C4H8O, purity 99%
Compound 24: dimethyl carbonate, C3H6O3, purity 99%
Compound 25: dichloromethane, CH2Cl2, purity 99%
Compound 26: trichloromethane, CHCl3, purity 99%
Compound 27: 1-bromo-1-chloro-2,2,2-trifluoroethane, C2HBrClF3, purity 99%
Compound 28: tetrachloromethane, CCl4, purity 99%
Compound 29: nitromethane, CH3NO2, purity 99%
Compound 30: acetonitrile, C2H3N, purity 99%
Compound 31: thiophene, C4H4S, purity 99%

System: heptane + 1-ethyl-3-methylimidazolium methanesulfonate; phases: Liquid, Gas
Fixed: Mole fraction of heptane = 0
Property: Activity coefficient of heptane (Liquid); method: Chromatography
Temperature, K	Activity coefficient of heptane	uncertainty
318.15	637	63.7
323.15	596	59.6
333.15	523	52.3
343.15	471	47.1
353.15	422	42.2

System: octane + 1-ethyl-3-methylimidazolium methanesulfonate; phases: Liquid, Gas
Fixed: Mole fraction of octane = 0
Property: Activity coefficient of octane (Liquid); method: Chromatography
Temperature, K	Activity coefficient of octane	uncertainty
318.15	1016	50.8
323.15	949	47.45
333.15	839	41.95
343.15	752	37.6
353.15	676	33.8

System: 1-octene + 1-ethyl-3-methylimidazolium methanesulfonate; phases: Liquid, Gas
Fixed: Mole fraction of 1-octene = 0
Property: Activity coefficient of 1-octene (Liquid); method: Chromatography
Temperature, K	Activity coefficient of 1-octene	uncertainty
318.15	374	11.22
323.15	356	10.68
333.15	325	9.75
343.15	300	9
353.15	277	8.31

System: cyclohexane + 1-ethyl-3-methylimidazolium methanesulfonate; phases: Liquid, Gas
Fixed: Mole fraction of cyclohexane = 0
Property: Activity coefficient of cyclohexane (Liquid); method: Chromatography
Temperature, K	Activity coefficient of cyclohexane	uncertainty
318.15	123	6.15
323.15	115	5.75
333.15	103	5.15
343.15	93.2	4.66
353.15	84.3	4.215

System: methylcyclohexane + 1-ethyl-3-methylimidazolium methanesulfonate; phases: Liquid, Gas
Fixed: Mole fraction of methylcyclohexane = 0
Property: Activity coefficient of methylcyclohexane (Liquid); method: Chromatography
Temperature, K	Activity coefficient of methylcyclohexane	uncertainty
318.15	211	10.55
323.15	198	9.9
333.15	177	8.85
343.15	160	8
353.15	147	7.35

System: ethylcyclohexane + 1-ethyl-3-methylimidazolium methanesulfonate; phases: Liquid, Gas
Fixed: Mole fraction of ethylcyclohexane = 0
Property: Activity coefficient of ethylcyclohexane (Liquid); method: Chromatography
Temperature, K	Activity coefficient of ethylcyclohexane	uncertainty
318.15	344	17.2
323.15	326	16.3
333.15	291	14.55
343.15	262	13.1
353.15	237	11.85

System: benzene + 1-ethyl-3-methylimidazolium methanesulfonate; phases: Liquid, Gas
Fixed: Mole fraction of benzene = 0
Property: Activity coefficient of benzene (Liquid); method: Chromatography
Temperature, K	Activity coefficient of benzene	uncertainty
318.15	4.51	.2255
323.15	4.5	.225
333.15	4.48	.224
343.15	4.48	.224
353.15	4.46	.223

System: toluene + 1-ethyl-3-methylimidazolium methanesulfonate; phases: Liquid, Gas
Fixed: Mole fraction of toluene = 0
Property: Activity coefficient of toluene (Liquid); method: Chromatography
Temperature, K	Activity coefficient of toluene	uncertainty
318.15	9.41	.4705
323.15	9.37	.4685
333.15	9.23	.4615
343.15	9.12	.456
353.15	9	.45

System: ethylbenzene + 1-ethyl-3-methylimidazolium methanesulfonate; phases: Liquid, Gas
Fixed: Mole fraction of ethylbenzene = 0
Property: Activity coefficient of ethylbenzene (Liquid); method: Chromatography
Temperature, K	Activity coefficient of ethylbenzene	uncertainty
318.15	19.1	.955
323.15	18.8	.94
333.15	18.3	.915
343.15	17.8	.89
353.15	17.3	.865

System: 1,3-dimethylbenzene + 1-ethyl-3-methylimidazolium methanesulfonate; phases: Liquid, Gas
Fixed: Mole fraction of 1,3-dimethylbenzene = 0
Property: Activity coefficient of 1,3-dimethylbenzene (Liquid); method: Chromatography
Temperature, K	Activity coefficient of 1,3-dimethylbenzene	uncertainty
318.15	20.8	1.04
323.15	20.5	1.025
333.15	19.9	.995
343.15	19.3	.965
353.15	18.8	.94

System: methanol + 1-ethyl-3-methylimidazolium methanesulfonate; phases: Liquid, Gas
Fixed: Mole fraction of methanol = 0
Property: Activity coefficient of methanol (Liquid); method: Chromatography
Temperature, K	Activity coefficient of methanol	uncertainty
318.15	.238	.00714
323.15	.239	.00717
333.15	.242	.00726
343.15	.244	.00732
353.15	.247	.00741

System: ethanol + 1-ethyl-3-methylimidazolium methanesulfonate; phases: Liquid, Gas
Fixed: Mole fraction of ethanol = 0
Property: Activity coefficient of ethanol (Liquid); method: Chromatography
Temperature, K	Activity coefficient of ethanol	uncertainty
318.15	.513	.01539
323.15	.509	.01527
333.15	.501	.01503
343.15	.496	.01488
353.15	.493	.01479

System: 1-propanol + 1-ethyl-3-methylimidazolium methanesulfonate; phases: Liquid, Gas
Fixed: Mole fraction of 1-propanol = 0
Property: Activity coefficient of 1-propanol (Liquid); method: Chromatography
Temperature, K	Activity coefficient of 1-propanol	uncertainty
318.15	.801	.02403
323.15	.789	.02367
333.15	.771	.02313
343.15	.754	.02262
353.15	.742	.02226

System: 2-propanol + 1-ethyl-3-methylimidazolium methanesulfonate; phases: Liquid, Gas
Fixed: Mole fraction of 2-propanol = 0
Property: Activity coefficient of 2-propanol (Liquid); method: Chromatography
Temperature, K	Activity coefficient of 2-propanol	uncertainty
318.15	.974	.02922
323.15	.958	.02874
333.15	.933	.02799
343.15	.913	.02739
353.15	.9	.027

System: 1,2-dimethoxyethane + 1-ethyl-3-methylimidazolium methanesulfonate; phases: Liquid, Gas
Fixed: Mole fraction of 1,2-dimethoxyethane = 0
Property: Activity coefficient of 1,2-dimethoxyethane (Liquid); method: Chromatography
Temperature, K	Activity coefficient of 1,2-dimethoxyethane	uncertainty
318.15	5.58	.1674
323.15	5.62	.1686
333.15	5.69	.1707
343.15	5.75	.1725
353.15	5.8	.174

System: 1-methyl-1-(1-methylethoxy)ethane + 1-ethyl-3-methylimidazolium methanesulfonate; phases: Liquid, Gas
Fixed: Mole fraction of 1-methyl-1-(1-methylethoxy)ethane = 0
Property: Activity coefficient of 1-methyl-1-(1-methylethoxy)ethane (Liquid); method: Chromatography
Temperature, K	Activity coefficient of 1-methyl-1-(1-methylethoxy)ethane	uncertainty
318.15	127	12.7
323.15	122	12.2
333.15	114	11.4
343.15	107	10.7
353.15	101	10.1

System: 1,1-dimethylethyl methyl ether + 1-ethyl-3-methylimidazolium methanesulfonate; phases: Liquid, Gas
Fixed: Mole fraction of 1,1-dimethylethyl methyl ether = 0
Property: Activity coefficient of 1,1-dimethylethyl methyl ether (Liquid); method: Chromatography
Temperature, K	Activity coefficient of 1,1-dimethylethyl methyl ether	uncertainty
318.15	34.6	1.038
323.15	33.8	1.014
333.15	32.6	.978
343.15	31.8	.954
353.15	30.9	.927

System: tetrahydrofuran + 1-ethyl-3-methylimidazolium methanesulfonate; phases: Liquid, Gas
Fixed: Mole fraction of tetrahydrofuran = 0
Property: Activity coefficient of tetrahydrofuran (Liquid); method: Chromatography
Temperature, K	Activity coefficient of tetrahydrofuran	uncertainty
318.15	5.37	.1611
323.15	5.33	.1599
333.15	5.24	.1572
343.15	5.18	.1554
353.15	5.1	.153

System: methyl ethanoate + 1-ethyl-3-methylimidazolium methanesulfonate; phases: Liquid, Gas
Fixed: Mole fraction of methyl ethanoate = 0
Property: Activity coefficient of methyl ethanoate (Liquid); method: Chromatography
Temperature, K	Activity coefficient of methyl ethanoate	uncertainty
318.15	3.59	.1077
323.15	3.6	.108
333.15	3.61	.1083
343.15	3.63	.1089
353.15	3.66	.1098

System: ethyl ethanoate + 1-ethyl-3-methylimidazolium methanesulfonate; phases: Liquid, Gas
Fixed: Mole fraction of ethyl ethanoate = 0
Property: Activity coefficient of ethyl ethanoate (Liquid); method: Chromatography
Temperature, K	Activity coefficient of ethyl ethanoate	uncertainty
318.15	7.32	.2196
323.15	7.29	.2187
333.15	7.22	.2166
343.15	7.17	.2151
353.15	7.12	.2136

System: acetone + 1-ethyl-3-methylimidazolium methanesulfonate; phases: Liquid, Gas
Fixed: Mole fraction of acetone = 0
Property: Activity coefficient of acetone (Liquid); method: Chromatography
Temperature, K	Activity coefficient of acetone	uncertainty
318.15	2.46	.0738
323.15	2.47	.0741
333.15	2.47	.0741
343.15	2.48	.0744
353.15	2.49	.0747

System: butanone + 1-ethyl-3-methylimidazolium methanesulfonate; phases: Liquid, Gas
Fixed: Mole fraction of butanone = 0
Property: Activity coefficient of butanone (Liquid); method: Chromatography
Temperature, K	Activity coefficient of butanone	uncertainty
318.15	4.48	.1344
323.15	4.46	.1338
333.15	4.48	.1344
343.15	4.41	.1323
353.15	4.38	.1314

System: dimethyl carbonate + 1-ethyl-3-methylimidazolium methanesulfonate; phases: Liquid, Gas
Fixed: Mole fraction of dimethyl carbonate = 0
Property: Activity coefficient of dimethyl carbonate (Liquid); method: Chromatography
Temperature, K	Activity coefficient of dimethyl carbonate	uncertainty
318.15	3.18	.0954
323.15	3.17	.0951
333.15	3.16	.0948
343.15	3.15	.0945
353.15	3.14	.0942

System: dichloromethane + 1-ethyl-3-methylimidazolium methanesulfonate; phases: Liquid, Gas
Fixed: Mole fraction of dichloromethane = 0
Property: Activity coefficient of dichloromethane (Liquid); method: Chromatography
Temperature, K	Activity coefficient of dichloromethane	uncertainty
318.15	.7	.021
323.15	.727	.02181
333.15	.78	.0234
343.15	.833	.02499
353.15	.887	.02661

System: trichloromethane + 1-ethyl-3-methylimidazolium methanesulfonate; phases: Liquid, Gas
Fixed: Mole fraction of trichloromethane = 0
Property: Activity coefficient of trichloromethane (Liquid); method: Chromatography
Temperature, K	Activity coefficient of trichloromethane	uncertainty
318.15	.488	.01464
323.15	.515	.01545
333.15	.572	.01716
343.15	.633	.01899
353.15	.694	.02082

System: 1-bromo-1-chloro-2,2,2-trifluoroethane + 1-ethyl-3-methylimidazolium methanesulfonate; phases: Liquid, Gas
Fixed: Mole fraction of 1-bromo-1-chloro-2,2,2-trifluoroethane = 0
Property: Activity coefficient of 1-bromo-1-chloro-2,2,2-trifluoroethane (Liquid); method: Chromatography
Temperature, K	Activity coefficient of 1-bromo-1-chloro-2,2,2-trifluoroethane	uncertainty
318.15	.586	.01758
323.15	.632	.01896
333.15	.739	.02217
343.15	.843	.02529
353.15	.96	.0288

System: tetrachloromethane + 1-ethyl-3-methylimidazolium methanesulfonate; phases: Liquid, Gas
Fixed: Mole fraction of tetrachloromethane = 0
Property: Activity coefficient of tetrachloromethane (Liquid); method: Chromatography
Temperature, K	Activity coefficient of tetrachloromethane	uncertainty
318.15	4.93	.1479
323.15	5.08	.1524
333.15	5.36	.1608
343.15	5.62	.1686
353.15	5.87	.1761

System: nitromethane + 1-ethyl-3-methylimidazolium methanesulfonate; phases: Liquid, Gas
Fixed: Mole fraction of nitromethane = 0
Property: Activity coefficient of nitromethane (Liquid); method: Chromatography
Temperature, K	Activity coefficient of nitromethane	uncertainty
318.15	.612	.01836
323.15	.621	.01863
333.15	.638	.01914
343.15	.653	.01959
353.15	.668	.02004

System: acetonitrile + 1-ethyl-3-methylimidazolium methanesulfonate; phases: Liquid, Gas
Fixed: Mole fraction of acetonitrile = 0
Property: Activity coefficient of acetonitrile (Liquid); method: Chromatography
Temperature, K	Activity coefficient of acetonitrile	uncertainty
318.15	.862	.02586
323.15	.873	.02619
333.15	.887	.02661
343.15	.9	.027
353.15	.912	.02736

System: thiophene + 1-ethyl-3-methylimidazolium methanesulfonate; phases: Liquid, Gas
Fixed: Mole fraction of thiophene = 0
Property: Activity coefficient of thiophene (Liquid); method: Chromatography
Temperature, K	Activity coefficient of thiophene	uncertainty
318.15	2.04	.0612
323.15	2.06	.0618
333.15	2.11	.0633
343.15	2.16	.0648
353.15	2.2	.066
