Measured thermophysical data. Determination of the crystallization thermodynamics and kinetics of L-tryptophan in alcohols - water system
Source: Fluid Phase Equilib., 2011, 10.1016/j.fluid.2011.09.028
Compound 1: L-2-amino-3-indolepropanoic acid, C11H12N2O2, purity 99%
Compound 2: methanol, CH4O, purity 99%
Compound 3: ethanol, C2H6O, purity 99%
Compound 4: propyl alcohol, C3H8O, purity 99%
Compound 5: water, H2O, purity 99.8%

System: methanol + L-2-amino-3-indolepropanoic acid + water; phases: Crystal, Liquid
Fixed: Pressure, kPa = 101
Property: Mole fraction of L-2-amino-3-indolepropanoic acid (Crystal); method: Static-analytic method
Temperature, K	Solvent: Mole fraction of methanol	Mole fraction of L-2-amino-3-indolepropanoic acid	uncertainty
293.15	.1001	.000877	.0002
293.15	.1602	.000898	.0002
293.15	.2288	.001002	.0002
293.15	.3079	.001212	.0002
293.15	.4003	.001313	.0002
293.15	.5094	.001389	.0002
293.15	.6403	.001354	.0002
293.15	.8002	.001214	.0002
303.15	.1001	.001169	.0002
303.15	.1602	.001215	.0002
303.15	.2288	.001375	.0002
303.15	.3079	.001547	.0002
303.15	.4003	.001689	.0002
303.15	.5094	.001727	.0002
303.15	.6403	.001543	.0002
303.15	.8002	.001284	.0002
313.15	.0471	.00143	.0002
313.15	.1001	.00147	.0002
313.15	.1602	.001568	.0002
313.15	.2288	.001742	.0002
313.15	.3079	.001918	.0002
313.15	.4003	.002005	.0002
313.15	.5094	.001992	.0002
313.15	.6403	.001764	.0002
313.15	.8002	.001354	.0002
323.15	.1001	.001959	.0002
323.15	.1602	.002174	.0002
323.15	.2288	.002328	.0002
323.15	.3079	.002555	.0002
323.15	.4003	.002557	.0002
323.15	.5094	.002423	.0002
323.15	.6403	.00208	.0002
323.15	.8002	.00153	.0002
333.15	.0471	.002221	.0002
333.15	.1001	.002463	.0002
333.15	.1602	.002637	.0002
333.15	.2288	.002903	.0002
333.15	.3079	.003162	.0002
333.15	.4003	.003096	.0002
333.15	.5094	.002889	.0002
333.15	.6403	.002372	.0002
333.15	.8002	.001679	.0002

System: ethanol + L-2-amino-3-indolepropanoic acid + water; phases: Crystal, Liquid
Fixed: Pressure, kPa = 101
Property: Mole fraction of L-2-amino-3-indolepropanoic acid (Crystal); method: Static-analytic method
Temperature, K	Solvent: Mole fraction of ethanol	Mole fraction of L-2-amino-3-indolepropanoic acid	uncertainty
293.15	.0716	.000863	.0002
293.15	.1168	.0009	.0002
293.15	.1707	.001095	.0002
293.15	.2359	.001426	.0002
293.15	.3165	.001489	.0002
293.15	.4187	.001362	.0002
293.15	.5525	.001251	.0002
293.15	.7353	.000804	.0002
303.15	.0332	.001168	.0002
303.15	.0716	.001205	.0002
303.15	.1168	.001316	.0002
303.15	.1707	.001636	.0002
303.15	.2359	.001956	.0002
303.15	.3165	.002022	.0002
303.15	.4187	.001867	.0002
303.15	.5525	.001683	.0002
303.15	.7353	.000967	.0002
313.15	.0332	.001513	.0002
313.15	.0716	.001588	.0002
313.15	.1168	.00182	.0002
313.15	.1707	.002133	.0002
313.15	.2359	.002445	.0002
313.15	.3165	.002584	.0002
313.15	.4187	.002224	.0002
313.15	.5525	.001673	.0002
313.15	.7353	.000827	.0002
323.15	.0332	.001923	.0002
323.15	.0716	.002159	.0002
323.15	.1168	.002468	.0002
323.15	.1707	.00283	.0002
323.15	.2359	.003162	.0002
323.15	.3165	.003085	.0002
323.15	.4187	.002708	.0002
323.15	.5525	.001899	.0002
333.15	.0332	.002366	.0002
333.15	.0716	.002789	.0002
333.15	.1168	.003225	.0002
333.15	.1707	.003768	.0002
333.15	.2359	.003918	.0002
333.15	.3165	.004162	.0002
333.15	.4187	.00365	.0002
333.15	.5525	.002665	.0002
333.15	.7353	.001223	.0002

System: propyl alcohol + L-2-amino-3-indolepropanoic acid + water; phases: Crystal, Liquid
Fixed: Pressure, kPa = 101
Property: Mole fraction of L-2-amino-3-indolepropanoic acid (Crystal); method: Static-analytic method
Temperature, K	Solvent: Mole fraction of propyl alcohol	Mole fraction of L-2-amino-3-indolepropanoic acid	uncertainty
293.15	.0261	.00101	.0002
293.15	.0568	.001194	.0002
293.15	.0935	.001618	.0002
293.15	.1383	.002292	.0002
293.15	.1941	.002593	.0002
293.15	.2654	.002768	.0002
293.15	.3597	.002589	.0002
293.15	.4906	.001882	.0002
293.15	.6843	.000695	.0002
303.15	.0261	.001348	.0002
303.15	.0568	.001706	.0002
303.15	.0935	.002414	.0002
303.15	.1383	.002941	.0002
303.15	.1941	.003313	.0002
303.15	.2654	.003372	.0002
303.15	.3597	.003075	.0002
303.15	.4906	.001971	.0002
303.15	.6843	.000792	.0002
313.15	.0261	.00169	.0002
313.15	.0568	.00225	.0002
313.15	.0935	.00318	.0002
313.15	.1383	.00367	.0002
313.15	.1941	.003969	.0002
313.15	.2654	.003974	.0002
313.15	.3597	.003486	.0002
313.15	.4906	.002206	.0002
313.15	.6843	.000806	.0002
323.15	.0261	.002061	.0002
323.15	.0568	.002979	.0002
323.15	.0935	.003843	.0002
323.15	.1383	.004574	.0002
323.15	.1941	.005011	.0002
323.15	.2654	.004688	.0002
323.15	.3597	.004084	.0002
323.15	.4906	.002407	.0002
323.15	.6843	.000973	.0002
333.15	.0261	.002616	.0002
333.15	.0568	.003614	.0002
333.15	.0935	.004793	.0002
333.15	.1383	.005426	.0002
333.15	.1941	.00577	.0002
333.15	.2654	.00549	.0002
333.15	.3597	.004662	.0002
333.15	.4906	.002776	.0002
333.15	.6843	.000945	.0002
