Measured thermophysical data. Measurement and correlation of solubility of carbon dioxide in 1-alkyl-3-methylimidazolium hexafluorophosphate ionic liquids
Source: Fluid Phase Equilib., 2011, 10.1016/j.fluid.2011.04.017
Compound 1: carbon dioxide, CO2, purity 99.999%
Compound 2: 1-butyl-3-methylimidazolium hexafluorophosphate, C8H15F6N2P, purity 99.5%
Compound 3: 1-nonyl-3-methylimidazolium hexafluorophosphate, C13H25F6N2P, purity 99.5%

System: 1-butyl-3-methylimidazolium hexafluorophosphate; phases: Liquid
Fixed: Pressure, kPa = 101.325
Property: Mass density, kg/m3 (Liquid); method: Vibrating tube method
Temperature, K	Mass density, kg/m3	uncertainty
298.15	1366.382	.05

System: 1-nonyl-3-methylimidazolium hexafluorophosphate; phases: Liquid
Fixed: Pressure, kPa = 101.325
Property: Mass density, kg/m3 (Liquid); method: Vibrating tube method
Temperature, K	Mass density, kg/m3	uncertainty
293.15	1198.317	.05
298.15	1194.342	.05

System: carbon dioxide + 1-butyl-3-methylimidazolium hexafluorophosphate; phases: Liquid, Gas
Fixed: Temperature, K = 298.15
Property: Mole fraction of carbon dioxide (Liquid); method: Phase equilibration
Pressure, kPa	Mole fraction of carbon dioxide	uncertainty
260	.063	.013
400	.074	.013
750	.141	.013
1040	.177	.013
1340	.212	.013
2500	.358	.013
3210	.416	.013
3650	.46	.013
4020	.492	.013

System: carbon dioxide + 1-nonyl-3-methylimidazolium hexafluorophosphate; phases: Liquid, Gas
Property: Mole fraction of carbon dioxide (Liquid); method: Phase equilibration
Temperature, K	Pressure, kPa	Mole fraction of carbon dioxide	uncertainty
293.15	860	.197	.013
293.15	1580	.322	.013
293.15	1860	.367	.013
293.15	2440	.445	.013
293.15	3400	.554	.013
298.15	890	.186	.013
298.15	1630	.312	.013
298.15	1880	.352	.013
298.15	1920	.357	.013
298.15	2520	.435	.013
298.15	3540	.537	.013
