Measured thermophysical data. Experimental and thermodynamic study of CO2 solubility in promising [TF2N and DCN] ionic liquids
Source: Fluid Phase Equilib., 2014, 10.1016/j.fluid.2014.05.021
Compound 1: 1,2,3-tris(diethylamino)-cyclopropenylium dicyanoamide, C17H31N6, purity 97%
Compound 2: N-ethyl-N,N-dimethyl-1-propanaminium 1,1,1-trifluoro-N-[(trifluoromethyl)sulfonyl]methanesulfonamide, C9H18F6N2O4S2, purity 99%
Compound 3: 1,2,3-tris(diethylamino)-cyclopropenylium bis(trifluoromethylsulfonyl)imide, C17H31F6N4O4S2, purity 97%
Compound 4: carbon dioxide, CO2

System: 1,2,3-tris(diethylamino)-cyclopropenylium dicyanoamide; phases: Liquid
Fixed: Pressure, kPa = 101.325
Property: Mass density, kg/m3 (Liquid); method: Vibrating tube method
Temperature, K	Mass density, kg/m3	uncertainty
278.15	1016.38	.01
283.15	1013.27	.01
288.15	1010.14	.01
293.15	1007	.01
298.15	1003.91	.01
303.15	1000.79	.01
308.15	997.7	.01
313.15	994.62	.01
318.15	991.55	.01
323.15	988.5	.01
328.15	985.46	.01
333.15	982.43	.01
338.15	979.41	.01
343.15	976.41	.01
348.15	973.4	.01
353.15	970.42	.01

System: N-ethyl-N,N-dimethyl-1-propanaminium 1,1,1-trifluoro-N-[(trifluoromethyl)sulfonyl]methanesulfonamide; phases: Liquid
Fixed: Pressure, kPa = 101.325
Property: Mass density, kg/m3 (Liquid); method: Vibrating tube method
Temperature, K	Mass density, kg/m3	uncertainty
278.15	1420.02	.01
283.15	1415.26	.01
288.15	1410.6	.01
293.15	1405.96	.01
298.15	1401.26	.01
303.15	1396.46	.01
308.15	1391.81	.01
313.15	1387.91	.01
318.15	1383.36	.01
323.15	1379.82	.01
328.15	1375.4	.01
333.15	1370.97	.01
338.15	1366.49	.01
343.15	1361.67	.01
348.15	1357.66	.01
353.15	1353.3	.01

System: 1,2,3-tris(diethylamino)-cyclopropenylium bis(trifluoromethylsulfonyl)imide; phases: Liquid
Fixed: Pressure, kPa = 101.325
Property: Mass density, kg/m3 (Liquid); method: Vibrating tube method
Temperature, K	Mass density, kg/m3	uncertainty
298.15	1273.41	.01
303.15	1269.05	.01
308.15	1264.7	.01
313.15	1260.36	.01
318.15	1256.04	.01
323.15	1251.73	.01
328.15	1247.43	.01
333.15	1243.16	.01
338.15	1238.89	.01
343.15	1234.64	.01
348.15	1230.42	.01
353.15	1226.19	.01

System: carbon dioxide + 1,2,3-tris(diethylamino)-cyclopropenylium dicyanoamide; phases: Liquid, Gas
Property: Mole fraction of carbon dioxide (Liquid); method: Gravimetric Microbalance
Temperature, K	Pressure, kPa	Mole fraction of carbon dioxide	uncertainty
313.15	10.1	.00178	.006
313.15	50	.00854	.006
313.15	100.1	.0165	.006
313.15	200.2	.0339	.006
313.15	400	.0674	.006
313.15	700	.1124	.006
313.15	899.9	.1411	.006
313.15	999.8	.1549	.006
313.15	1099.9	.1686	.006
313.15	1299.8	.1959	.006
313.15	1499.3	.2217	.006
313.15	1700.1	.2479	.006
313.15	1900.7	.272	.006
323.15	10.2	.00187	.006
323.15	50	.00754	.006
323.15	99.7	.0145	.006
323.15	199.8	.0299	.006
323.15	400.1	.0587	.006
323.15	699.6	.0977	.006
323.15	900.1	.1231	.006
323.15	999.7	.1357	.006
323.15	1100.3	.1478	.006
323.15	1299.7	.1727	.006
323.15	1499.7	.1957	.006
323.15	1699.8	.2185	.006
323.15	1900.6	.2403	.006
333.15	10	.00175	.006
333.15	49.9	.00609	.006
333.15	99.9	.0125	.006
333.15	200	.0255	.006
333.15	399.8	.0502	.006
333.15	699.8	.0835	.006
333.15	899.9	.1051	.006
333.15	1000	.1163	.006
333.15	1100	.1265	.006
333.15	1299.9	.1475	.006
333.15	1499.7	.1678	.006
333.15	1700.7	.1858	.006

System: carbon dioxide + N-ethyl-N,N-dimethyl-1-propanaminium 1,1,1-trifluoro-N-[(trifluoromethyl)sulfonyl]methanesulfonamide; phases: Liquid, Gas
Property: Mole fraction of carbon dioxide (Liquid); method: Gravimetric Microbalance
Temperature, K	Pressure, kPa	Mole fraction of carbon dioxide	uncertainty
313.15	9.8	.016	.006
313.15	50	.0229	.006
313.15	99.9	.0335	.006
313.15	199.9	.0548	.006
313.15	399.8	.0941	.006
313.15	699.8	.1462	.006
313.15	899.8	.1779	.006
313.15	999.8	.1932	.006
313.15	1099.9	.2086	.006
313.15	1299.8	.2382	.006
313.15	1499.9	.2657	.006
313.15	1699.9	.2921	.006
313.15	1900	.3165	.006
323.15	10	.00209	.006
323.15	50	.00877	.006
323.15	99.8	.0175	.006
323.15	200	.0363	.006
323.15	400.1	.0701	.006
323.15	699.8	.1144	.006
323.15	899.9	.1432	.006
323.15	1000.3	.157	.006
323.15	1100	.1711	.006
323.15	1299.8	.1969	.006
323.15	1500.2	.2212	.006
323.15	1699.6	.2448	.006
323.15	1899.6	.2673	.006
333.15	10.1	.00182	.006
333.15	50	.00682	.006
333.15	100	.0144	.006
333.15	199.9	.0317	.006
333.15	399.8	.06	.006
333.15	700.1	.09942	.006
333.15	900	.1232	.006
333.15	999.8	.1346	.006
333.15	1100	.1459	.006
333.15	1299.8	.1683	.006
333.15	1499.9	.1898	.006
333.15	1699	.2094	.006
333.15	1899.7	.228	.006

System: carbon dioxide + 1,2,3-tris(diethylamino)-cyclopropenylium bis(trifluoromethylsulfonyl)imide; phases: Liquid, Gas
Property: Mole fraction of carbon dioxide (Liquid); method: Gravimetric Microbalance
Temperature, K	Pressure, kPa	Mole fraction of carbon dioxide	uncertainty
313.15	9.7	.00284	.006
313.15	49.9	.013	.006
313.15	99.9	.025	.006
313.15	200	.0503	.006
313.15	400.1	.0974	.006
313.15	699.9	.1592	.006
313.15	899.9	.1972	.006
313.15	999.8	.2155	.006
313.15	1100.1	.2331	.006
313.15	1299.9	.2673	.006
313.15	1500	.3	.006
313.15	1699.7	.3318	.006
313.15	1899.7	.36	.006
323.15	10.1	.00254	.006
323.15	50.1	.01052	.006
323.15	99.9	.0209	.006
323.15	200	.0437	.006
323.15	399.8	.0837	.006
323.15	699.9	.1373	.006
323.15	899.8	.1704	.006
323.15	999.9	.1866	.006
323.15	1099.9	.2018	.006
323.15	1299.9	.2317	.006
323.15	1499.8	.2614	.006
323.15	1700.5	.2881	.006
323.15	1899.8	.3127	.006
333.15	10.1	.0023	.006
333.15	50	.00902	.006
333.15	99.8	.0188	.006
333.15	199.9	.0391	.006
333.15	399.8	.0741	.006
333.15	699.9	.1218	.006
333.15	899.8	.1519	.006
333.15	999.7	.1668	.006
333.15	1100	.181	.006
333.15	1300	.2078	.006
333.15	1500	.2338	.006
333.15	1700	.2578	.006
333.15	1899.8	.2817	.006
