Measured thermophysical data. Phase equilibria for reactive distillation of diethyl succinate  Part I. System diethyl succinate + ethanol + water
Source: Fluid Phase Equilib., 2010, 10.1016/j.fluid.2009.11.014
Compound 1: water, H2O, purity 99.9%
Compound 2: ethanol, C2H6O, purity 99.8%
Compound 3: diethyl butanedioate, C8H14O4
Compound 4: 1-butanol, C4H10O

System: ethanol + diethyl butanedioate + water; phases: Liquid mixture 1, Liquid mixture 2
Fixed: Pressure, kPa = 101
Property: Liquid-liquid equilibrium temperature, K (Liquid mixture 1); method: Visual observation
Mass fraction of ethanol	Mass fraction of water	Liquid-liquid equilibrium temperature, K	uncertainty
.0805	.0494	303.15	.05
.156	.0958	303.15	.05
.2037	.1454	303.15	.05
.2342	.1963	303.15	.05
.2571	.2448	303.15	.05
.2946	.4353	303.15	.05
.2888	.5787	303.15	.05
.2724	.643	303.15	.05
.2373	.7118	303.15	.05
.228	.718	303.15	.05
.2179	.7391	303.15	.05
.2203	.7399	303.15	.05
.2033	.758	303.15	.05
.1401	.8333	303.15	.05
.0513	.9259	303.15	.05
.0445	.9341	303.15	.05
.1454	.0895	313.15	.05
.1936	.1347	313.15	.05
.2104	.1586	313.15	.05
.2415	.2292	313.15	.05
.2612	.2943	313.15	.05
.2743	.3635	313.15	.05
.2781	.5704	313.15	.05
.2563	.6388	313.15	.05
.2226	.7067	313.15	.05
.1676	.7916	313.15	.05
.0467	.9305	313.15	.05
0	.9789	313.15	.05

System: ethanol + diethyl butanedioate + water; phases: Liquid mixture 2, Liquid mixture 1
Fixed: Pressure, kPa = 101.325
Property: Mass fraction of water (Liquid mixture 2); method: Chromatography
Property: Mass fraction of ethanol (Liquid mixture 1); method: Chromatography
Property: Mass fraction of water (Liquid mixture 1); method: Chromatography
Temperature, K	Mass fraction of ethanol	Mass fraction of water	uncertainty	Mass fraction of ethanol	uncertainty	Mass fraction of water	uncertainty
303.15	.0509	.0438	.000438	.1448	.001448	.8224	.008224
313.15	.1193	.1041	.001041	.1843	.001843	.7574	.007574
303.15	.0891	.071	.00071	.2023	.002023	.749	.00749
303.15	.144	.0981	.000981	.2361	.002361	.6925	.006925
303.15	.1607	.1339	.001339	.2603	.002603	.6412	.006412
303.15	.1966	.1569	.001569	.2805	.002805	.587	.00587
303.15	.2123	.1713	.001713	.2796	.002796	.5803	.005803
313.15	.0208	.0319	.000319	.0306	.000306	.9504	.009504
313.15	.0513	.0493	.000493	.06	.0006	.8944	.008944
313.15	.0961	.0762	.000762	.1276	.001276	.8372	.008372

System: ethanol + diethyl butanedioate; phases: Liquid, Gas
Fixed: Temperature, K = 323.15
Property: Vapor or sublimation pressure, kPa (Liquid); method: Manometric method
Mole fraction of ethanol	Vapor or sublimation pressure, kPa	uncertainty
0	.07	.0007
.0446	3.04	.0304
.0648	4.11	.0411
.0838	5.11	.0511
.1185	6.84	.0684
.1501	8.19	.0819
.1925	9.68	.0968
.2761	12.88	.1288
.2844	12.97	.1297
.3315	15.03	.1503
.4234	17.83	.1783
.5165	20.4	.204
.624	22.93	.2293
.7037	24.33	.2433
.769	25.46	.2546
.851	27	.27
.903	28.06	.2806
.9112	28.2	.282
1	29.53	.2953

System: ethanol + water; phases: Liquid, Gas
Fixed: Pressure, kPa = 101.325
Property: Boiling temperature at pressure P, K (Liquid); method: Pt thermistor
Mole fraction of ethanol	Boiling temperature at pressure P, K	uncertainty
.001	373.15	.05
.0061	371.75	.05
.0145	369.65	.05
.0237	367.35	.05
.031	365.65	.05
.049	363.45	.05
.0652	361.45	.05
.0968	359.55	.05
.1394	357.55	.05
.3261	354.65	.05
.4635	353.35	.05
.5413	352.65	.05
.6856	351.75	.05
.776	351.55	.05
.8403	351.35	.05
.9037	351.45	.05
.9725	351.55	.05
.9804	351.65	.05

System: ethanol + water; phases: Gas, Liquid
Fixed: Pressure, kPa = 101.325
Property: Boiling temperature at pressure P, K (Gas); method: Pt thermister
Mole fraction of ethanol	Boiling temperature at pressure P, K	uncertainty
.0047	373.15	.05
.0721	371.75	.05
.1539	369.65	.05
.2301	367.35	.05
.2851	365.65	.05
.3559	363.45	.05
.4181	361.45	.05
.4534	359.55	.05
.5314	357.55	.05
.6047	354.65	.05
.6518	353.35	.05
.6751	352.65	.05
.7451	351.75	.05
.8005	351.55	.05
.8457	351.35	.05
.901	351.45	.05
.9721	351.55	.05
.9774	351.65	.05
