Measured thermophysical data. Experimental solid-liquid phase equilibria of {cholesterol + binary solvent mixture: 1-Alcohol (C4-C10) + cyclohexane}
Source: Fluid Phase Equilib., 2010, 10.1016/j.fluid.2009.10.009
Compound 1: cyclohexane, C6H12, purity 99%
Compound 2: 1-butanol, C4H10O, purity 99%
Compound 3: 1-pentanol, C5H12O, purity 99%
Compound 4: 1-hexanol, C6H14O, purity 99%
Compound 5: 1-heptanol, C7H16O, purity 99%
Compound 6: 1-octanol, C8H18O, purity 99%
Compound 7: 1-nonanol, C9H20O, purity 99%
Compound 8: 1-decanol, C10H22O, purity 99%
Compound 9: .DELTA.5-cholesten-3.beta.-ol, C27H46O, purity 99%

System: .DELTA.5-cholesten-3.beta.-ol; phases: Crystal, Liquid, Air at 1 atmosphere
Property: Normal melting temperature, K (Crystal); method: Visual observation
Normal melting temperature, K	uncertainty
421.15	.05

System: .DELTA.5-cholesten-3.beta.-ol + 1-butanol + cyclohexane; phases: Liquid, Crystal 1
Property: Mole fraction of .DELTA.5-cholesten-3.beta.-ol (Liquid); method: Visual
Temperature, K	Mole fraction of cyclohexane	Pressure, kPa	Mole fraction of .DELTA.5-cholesten-3.beta.-ol	uncertainty
346.45	.2	101.325	.1758	.0005
342.55	.2	101.325	.1614	.0005
338.3	.2	101.325	.1491	.0005
334.8	.2	101.325	.1391	.0005
330.75	.2	101.325	.1293	.0005
327.05	.2	101.325	.1203	.0005
349.65	.3993	101.325	.1785	.0005
340.65	.3993	101.325	.1647	.0005
338.95	.3993	101.325	.1608	.0005
332.75	.3993	101.325	.1514	.0005
328.85	.3993	101.325	.1429	.0005
323.55	.3993	101.325	.1361	.0005
318.45	.3993	101.325	.1287	.0005
341.55	.6012	101.325	.1735	.0005
333.85	.6012	101.325	.158	.0005
321.05	.6012	101.325	.1472	.0005
311.95	.6012	101.325	.1402	.0005
332.65	.8	101.325	.1639	.0005
328.15	.8	101.325	.1584	.0005
325.95	.8	101.325	.154	.0005
324.65	.8	101.325	.1499	.0005
321.25	.8	101.325	.1451	.0005
316.55	.8	101.325	.1391	.0005
308.55	.8	101.325	.1335	.0005

System: .DELTA.5-cholesten-3.beta.-ol + 1-butanol + cyclohexane; phases: Liquid, Crystal 2
Property: Mole fraction of .DELTA.5-cholesten-3.beta.-ol (Liquid); method: Visual
Temperature, K	Mole fraction of cyclohexane	Pressure, kPa	Mole fraction of .DELTA.5-cholesten-3.beta.-ol	uncertainty
324.15	.2	101.325	.0868	.0005
322.95	.2	101.325	.083	.0005
321.3	.2	101.325	.0773	.0005
318.45	.2	101.325	.0693	.0005
314.35	.2	101.325	.0607	.0005
311.1	.2	101.325	.0533	.0005
307.95	.2	101.325	.0485	.0005
305.15	.2	101.325	.0437	.0005
302.2	.2	101.325	.0391	.0005
299.45	.2	101.325	.0354	.0005
296.45	.2	101.325	.0314	.0005
292.95	.2	101.325	.0278	.0005
289.35	.2	101.325	.0246	.0005
286.25	.2	101.325	.022	.0005
281.55	.2	101.325	.0186	.0005
278.65	.2	101.325	.0166	.0005
314.75	.3993	101.325	.0904	.0005
312.15	.3993	101.325	.0853	.0005
311.85	.3993	101.325	.0852	.0005
310.45	.3993	101.325	.0812	.0005
310.25	.3993	101.325	.0802	.0005
308.55	.3993	101.325	.0765	.0005
306.15	.3993	101.325	.0712	.0005
303.55	.3993	101.325	.0661	.0005
300.95	.3993	101.325	.0609	.0005
298.05	.3993	101.325	.0564	.0005
295.65	.3993	101.325	.0518	.0005
291.75	.3993	101.325	.046	.0005
286.35	.3993	101.325	.0394	.0005
281.35	.3993	101.325	.0333	.0005
276.35	.3993	101.325	.0283	.0005
308.05	.6012	101.325	.1326	.0005
305.45	.6012	101.325	.1245	.0005
302.25	.6012	101.325	.1148	.0005
297.25	.6012	101.325	.104	.0005
294.15	.6012	101.325	.0974	.0005
291.15	.6012	101.325	.0905	.0005
286.15	.6012	101.325	.0824	.0005
281.15	.6012	101.325	.0745	.0005
300.05	.8	101.325	.0888	.0005
297.85	.8	101.325	.0824	.0005
294.95	.8	101.325	.0748	.0005
290.45	.8	101.325	.0641	.0005
286.05	.8	101.325	.0551	.0005
281.95	.8	101.325	.0486	.0005
278.95	.8	101.325	.0429	.0005

System: .DELTA.5-cholesten-3.beta.-ol + 1-butanol + cyclohexane; phases: Liquid, Crystal 1, Crystal 2
Fixed: Pressure, kPa = 101
Property: Mole fraction of cyclohexane (Liquid); method: Visual
Temperature, K	Mole fraction of cyclohexane	uncertainty
337.4	0	.0005
327	.2	.0005
318.4	.3993	.0005
309	.6012	.0005
308.5	.8	.0005
316.1	1	.0005

System: .DELTA.5-cholesten-3.beta.-ol + 1-butanol + cyclohexane; phases: Crystal 1, Metastable crystal
Fixed: Pressure, kPa = 101
Property: Mole fraction of .DELTA.5-cholesten-3.beta.-ol (Crystal 1); method: Visual
Temperature, K	Mole fraction of cyclohexane	Mole fraction of .DELTA.5-cholesten-3.beta.-ol	uncertainty
323.9	.2	.1133	.0005
320.95	.2	.1077	.0005
316.05	.2	.1017	.0005
313.2	.2	.096	.0005
310.35	.2	.0911	.0005
306.95	.2	.0868	.0005
314.35	.3993	.1227	.0005
310.75	.3993	.117	.0005
306.35	.3993	.1119	.0005
302.75	.3993	.1068	.0005
299.75	.3993	.106	.0005
297.55	.3993	.1017	.0005
295.95	.3993	.0967	.0005
293.65	.3993	.0958	.0005
305.75	.8	.1297	.0005
303.55	.8	.1265	.0005
300.05	.8	.1214	.0005
295.45	.8	.1157	.0005
292.55	.8	.11	.0005
290.25	.8	.1052	.0005
287.25	.8	.1003	.0005

System: .DELTA.5-cholesten-3.beta.-ol + 1-pentanol + cyclohexane; phases: Liquid, Crystal 1
Property: Mole fraction of .DELTA.5-cholesten-3.beta.-ol (Liquid); method: Visual
Temperature, K	Mole fraction of cyclohexane	Pressure, kPa	Mole fraction of .DELTA.5-cholesten-3.beta.-ol	uncertainty
347.45	.199	101.325	.1549	.0005
342.65	.199	101.325	.1357	.0005
335.15	.199	101.325	.1216	.0005
329.8	.199	101.325	.1113	.0005
323.4	.199	101.325	.0993	.0005
314.35	.199	101.325	.0917	.0005
352.15	.4001	101.325	.1585	.0005
344.65	.4001	101.325	.1455	.0005
337.75	.4001	101.325	.1363	.0005
337.15	.4001	101.325	.1342	.0005
332.6	.4001	101.325	.1311	.0005
325.95	.4001	101.325	.124	.0005
320.85	.4001	101.325	.1154	.0005
313.45	.4001	101.325	.1085	.0005
305.45	.4001	101.325	.1024	.0005
346.65	.6011	101.325	.1492	.0005
344.65	.6011	101.325	.1441	.0005
341.15	.6011	101.325	.1411	.0005
337.15	.6011	101.325	.1347	.0005
335.15	.6011	101.325	.1311	.0005
326.75	.6011	101.325	.1254	.0005
319.3	.6011	101.325	.1167	.0005
310.45	.6011	101.325	.1092	.0005
300.45	.6011	101.325	.1032	.0005
347.15	.8009	101.325	.1275	.0005
333.65	.8009	101.325	.1192	.0005
328.15	.8009	101.325	.1165	.0005
302.65	.8009	101.325	.1083	.0005
297.95	.8009	101.325	.105	.0005

System: .DELTA.5-cholesten-3.beta.-ol + 1-pentanol + cyclohexane; phases: Liquid, Crystal 2
Property: Mole fraction of .DELTA.5-cholesten-3.beta.-ol (Liquid); method: Visual
Temperature, K	Mole fraction of cyclohexane	Pressure, kPa	Mole fraction of .DELTA.5-cholesten-3.beta.-ol	uncertainty
311.55	.199	101.325	.0834	.0005
308.65	.199	101.325	.0777	.0005
304.9	.199	101.325	.0695	.0005
302.55	.199	101.325	.0643	.0005
298.6	.199	101.325	.0566	.0005
294.45	.199	101.325	.0506	.0005
292.25	.199	101.325	.0479	.0005
288.15	.199	101.325	.0439	.0005
293.05	.199	101.325	.0403	.0005
290.45	.199	101.325	.0373	.0005
285.15	.199	101.325	.0316	.0005
281.45	.199	101.325	.0282	.0005
277.95	.199	101.325	.0253	.0005
303.15	.4001	101.325	.0969	.0005
300.55	.4001	101.325	.0916	.0005
298.05	.4001	101.325	.0867	.0005
294.3	.4001	101.325	.0794	.0005
292.3	.4001	101.325	.076	.0005
290.3	.4001	101.325	.0728	.0005
293.85	.4001	101.325	.0674	.0005
291.35	.4001	101.325	.0624	.0005
288.65	.4001	101.325	.0575	.0005
285.35	.4001	101.325	.0521	.0005
297.55	.6011	101.325	.1007	.0005
295.05	.6011	101.325	.0948	.0005
293.3	.6011	101.325	.0905	.0005
291.75	.6011	101.325	.0862	.0005
290.5	.6011	101.325	.0824	.0005
288.85	.6011	101.325	.0771	.0005
293.95	.8009	101.325	.1011	.0005
292.15	.8009	101.325	.097	.0005
290.45	.8009	101.325	.0891	.0005
288.65	.8009	101.325	.0843	.0005

System: .DELTA.5-cholesten-3.beta.-ol + 1-pentanol + cyclohexane; phases: Liquid, Crystal 1, Crystal 2
Fixed: Pressure, kPa = 101
Property: Mole fraction of cyclohexane (Liquid); method: Visual
Temperature, K	Mole fraction of cyclohexane	uncertainty
314.2	0	.0005
314.3	.199	.0005
305.4	.4001	.0005
297.7	.6011	.0005
294.8	.8009	.0005

System: .DELTA.5-cholesten-3.beta.-ol + 1-pentanol + cyclohexane; phases: Crystal 1, Metastable crystal
Fixed: Pressure, kPa = 101
Property: Mole fraction of .DELTA.5-cholesten-3.beta.-ol (Crystal 1); method: Visual
Temperature, K	Mole fraction of cyclohexane	Mole fraction of .DELTA.5-cholesten-3.beta.-ol	uncertainty
286.65	.8009	.0922	.0005
279.45	.8009	.0843	.0005

System: .DELTA.5-cholesten-3.beta.-ol + cyclohexane + 1-hexanol; phases: Liquid, Crystal 1
Property: Mole fraction of .DELTA.5-cholesten-3.beta.-ol (Liquid); method: Visual
Temperature, K	Mole fraction of cyclohexane	Pressure, kPa	Mole fraction of .DELTA.5-cholesten-3.beta.-ol	uncertainty
344.65	.2002	101.325	.172	.0005
343.25	.2002	101.325	.1625	.0005
338.65	.2002	101.325	.1475	.0005
333.65	.2002	101.325	.134	.0005
330.65	.2002	101.325	.1285	.0005
329.15	.2002	101.325	.1246	.0005
327.45	.2002	101.325	.1194	.0005
323.15	.2002	101.325	.1148	.0005
345.15	.4003	101.325	.1672	.0005
343.45	.4003	101.325	.1613	.0005
339.45	.4003	101.325	.1492	.0005
337.35	.4003	101.325	.1429	.0005
332.35	.4003	101.325	.1299	.0005
327.55	.4003	101.325	.1212	.0005
323.05	.4003	101.325	.1165	.0005
319.55	.4003	101.325	.1125	.0005
315.95	.4003	101.325	.1085	.0005
342.15	.598	101.325	.153	.0005
335.65	.598	101.325	.1347	.0005
329.65	.598	101.325	.1269	.0005
323.05	.598	101.325	.1204	.0005
316.25	.598	101.325	.1135	.0005
309.95	.598	101.325	.1071	.0005
303.15	.598	101.325	.1021	.0005
342.65	.8006	101.325	.1734	.0005
341.15	.8006	101.325	.1679	.0005
337.65	.8006	101.325	.1601	.0005
333.85	.8006	101.325	.1551	.0005
329.95	.8006	101.325	.1516	.0005
324.75	.8006	101.325	.1425	.0005
320.25	.8006	101.325	.1357	.0005
314.75	.8006	101.325	.1289	.0005
310.65	.8006	101.325	.1226	.0005
305.95	.8006	101.325	.1159	.0005
302.65	.8006	101.325	.1106	.0005
298.25	.8006	101.325	.1051	.0005
293.75	.8006	101.325	.0997	.0005
290.75	.8006	101.325	.0953	.0005

System: .DELTA.5-cholesten-3.beta.-ol + cyclohexane + 1-hexanol; phases: Liquid, Crystal 2
Property: Mole fraction of .DELTA.5-cholesten-3.beta.-ol (Liquid); method: Visual
Temperature, K	Mole fraction of cyclohexane	Pressure, kPa	Mole fraction of .DELTA.5-cholesten-3.beta.-ol	uncertainty
322.15	.2002	101.325	.1111	.0005
320.85	.2002	101.325	.1077	.0005
318.85	.2002	101.325	.1012	.0005
316.95	.2002	101.325	.0949	.0005
315.05	.2002	101.325	.0893	.0005
313.3	.2002	101.325	.0847	.0005
310.65	.2002	101.325	.0785	.0005
308.3	.2002	101.325	.0729	.0005
305.85	.2002	101.325	.0678	.0005
303.65	.2002	101.325	.0634	.0005
300.55	.2002	101.325	.0577	.0005
297.75	.2002	101.325	.0541	.0005
294.25	.2002	101.325	.0497	.0005
291.65	.2002	101.325	.0461	.0005
289.15	.2002	101.325	.0418	.0005
285.55	.2002	101.325	.0389	.0005
280.95	.2002	101.325	.0343	.0005
277.65	.2002	101.325	.0299	.0005
313.45	.4003	101.325	.1053	.0005
312.55	.4003	101.325	.1021	.0005
309.65	.4003	101.325	.0943	.0005
308.35	.4003	101.325	.0903	.0005
305.65	.4003	101.325	.0851	.0005
303.05	.4003	101.325	.0806	.0005
300.55	.4003	101.325	.0763	.0005
297.05	.4003	101.325	.0704	.0005
293.65	.4003	101.325	.0652	.0005
289.55	.4003	101.325	.0595	.0005
285.85	.4003	101.325	.0547	.0005
282.65	.4003	101.325	.0511	.0005
277.65	.4003	101.325	.046	.0005
300.85	.598	101.325	.0965	.0005
298.45	.598	101.325	.0914	.0005
296.45	.598	101.325	.0867	.0005
293.75	.598	101.325	.0821	.0005
291.75	.598	101.325	.0786	.0005
288.75	.598	101.325	.073	.0005
286.15	.598	101.325	.0688	.0005
283.35	.598	101.325	.0648	.0005
280.25	.598	101.325	.0601	.0005
276.65	.598	101.325	.0562	.0005
287.85	.8006	101.325	.0895	.0005
285.75	.8006	101.325	.0841	.0005
284.25	.8006	101.325	.0788	.0005
282.35	.8006	101.325	.0732	.0005
279.45	.8006	101.325	.0676	.0005
276.35	.8006	101.325	.0625	.0005

System: .DELTA.5-cholesten-3.beta.-ol + cyclohexane + 1-hexanol; phases: Liquid, Crystal 1, Crystal 2
Fixed: Pressure, kPa = 101
Property: Mole fraction of cyclohexane (Liquid); method: Visual
Temperature, K	Mole fraction of cyclohexane	uncertainty
326	0	.0005
323.1	.2002	.0005
313.8	.4003	.0005
303.1	.598	.0005
289	.8006	.0005

System: .DELTA.5-cholesten-3.beta.-ol + 1-heptanol; phases: Liquid, Crystal 1
Fixed: Pressure, kPa = 101
Property: Mole fraction of .DELTA.5-cholesten-3.beta.-ol (Liquid); method: Visual
Temperature, K	Mole fraction of .DELTA.5-cholesten-3.beta.-ol	uncertainty
344.45	.1854	.0005
339.45	.1664	.0005
334.75	.1505	.0005
330.75	.1373	.0005
326.75	.1286	.0005
323.25	.1213	.0005
319.75	.1145	.0005
315.65	.1084	.0005
312.35	.1035	.0005

System: .DELTA.5-cholesten-3.beta.-ol + 1-heptanol; phases: Liquid, Crystal 2
Fixed: Pressure, kPa = 101
Property: Mole fraction of .DELTA.5-cholesten-3.beta.-ol (Liquid); method: Visual
Temperature, K	Mole fraction of .DELTA.5-cholesten-3.beta.-ol	uncertainty
309.7	.0983	.0005
308.4	.0939	.0005
306.95	.0897	.0005
305.85	.0863	.0005
304.6	.0827	.0005
303.75	.0788	.0005
300.45	.0722	.0005
296.75	.0639	.0005
294.65	.0599	.0005
293.05	.0558	.0005
291.05	.0526	.0005
289.05	.0498	.0005
287.2	.0475	.0005
285.35	.0441	.0005
283.75	.0422	.0005
281.95	.0394	.0005
279.9	.0375	.0005
278.4	.0355	.0005

System: .DELTA.5-cholesten-3.beta.-ol + cyclohexane + 1-heptanol; phases: Liquid, Crystal 1
Property: Mole fraction of .DELTA.5-cholesten-3.beta.-ol (Liquid); method: Visual
Temperature, K	Mole fraction of cyclohexane	Pressure, kPa	Mole fraction of .DELTA.5-cholesten-3.beta.-ol	uncertainty
343.45	.1999	101.325	.1712	.0005
340.35	.1999	101.325	.1625	.0005
336.85	.1999	101.325	.1555	.0005
334.85	.1999	101.325	.1495	.0005
331.2	.1999	101.325	.1436	.0005
328	.1999	101.325	.1375	.0005
325.3	.1999	101.325	.1313	.0005
321.85	.1999	101.325	.1248	.0005
318.75	.1999	101.325	.1208	.0005
316.45	.1999	101.325	.1164	.0005
313.65	.1999	101.325	.1124	.0005
311.15	.1999	101.325	.1087	.0005
308.35	.1999	101.325	.1054	.0005
305.65	.1999	101.325	.1026	.0005
343.85	.3999	101.325	.1579	.0005
340.25	.3999	101.325	.1484	.0005
336.45	.3999	101.325	.1398	.0005
332.95	.3999	101.325	.1355	.0005
329.05	.3999	101.325	.1294	.0005
325.25	.3999	101.325	.1232	.0005
318.45	.3999	101.325	.1139	.0005
314.85	.3999	101.325	.1099	.0005
311.7	.3999	101.325	.1061	.0005
308.35	.3999	101.325	.1028	.0005
305	.3999	101.325	.0999	.0005
300.25	.3999	101.325	.0961	.0005
347.15	.6008	101.325	.1597	.0005
344.65	.6008	101.325	.156	.0005
341.05	.6008	101.325	.1496	.0005
336.65	.6008	101.325	.1442	.0005
331.95	.6008	101.325	.1398	.0005
327.65	.6008	101.325	.1346	.0005
321.55	.6008	101.325	.1278	.0005
317.55	.6008	101.325	.1235	.0005
312.15	.6008	101.325	.1192	.0005
307.55	.6008	101.325	.1155	.0005
302.95	.6008	101.325	.1116	.0005
297.75	.6008	101.325	.1078	.0005
334.15	.8	101.325	.1317	.0005
323.25	.8	101.325	.1273	.0005
314.65	.8	101.325	.1214	.0005
305.65	.8	101.325	.1197	.0005
301.25	.8	101.325	.1155	.0005

System: .DELTA.5-cholesten-3.beta.-ol + cyclohexane + 1-heptanol; phases: Liquid, Crystal 2
Property: Mole fraction of .DELTA.5-cholesten-3.beta.-ol (Liquid); method: Visual
Temperature, K	Mole fraction of cyclohexane	Pressure, kPa	Mole fraction of .DELTA.5-cholesten-3.beta.-ol	uncertainty
304.05	.1999	101.325	.1001	.0005
303.65	.1999	101.325	.0975	.0005
302.75	.1999	101.325	.0945	.0005
301.65	.1999	101.325	.0921	.0005
300.65	.1999	101.325	.0897	.0005
299.75	.1999	101.325	.0872	.0005
297.8	.1999	101.325	.0827	.0005
296.25	.1999	101.325	.0792	.0005
294.35	.1999	101.325	.0759	.0005
293.25	.1999	101.325	.0727	.0005
291.65	.1999	101.325	.0692	.0005
290.35	.1999	101.325	.066	.0005
288.25	.1999	101.325	.0634	.0005
286.35	.1999	101.325	.0606	.0005
285.1	.1999	101.325	.0587	.0005
283.2	.1999	101.325	.0557	.0005
281.6	.1999	101.325	.053	.0005
279.55	.1999	101.325	.0508	.0005
277.55	.1999	101.325	.0479	.0005
298.8	.3999	101.325	.0922	.0005
297.85	.3999	101.325	.0899	.0005
294.95	.3999	101.325	.0851	.0005
292.25	.3999	101.325	.0803	.0005
290.5	.3999	101.325	.0765	.0005
288.45	.3999	101.325	.0731	.0005
286	.3999	101.325	.07	.0005
284.1	.3999	101.325	.0671	.0005
282.4	.3999	101.325	.0647	.0005
279.65	.3999	101.325	.0608	.0005
277.55	.3999	101.325	.0585	.0005
295.55	.6008	101.325	.1044	.0005
290.75	.6008	101.325	.0985	.0005
288.65	.6008	101.325	.096	.0005
285.45	.6008	101.325	.0897	.0005
282.85	.6008	101.325	.085	.0005
280.95	.6008	101.325	.0826	.0005
280.15	.6008	101.325	.0804	.0005
277.95	.6008	101.325	.0769	.0005
300.75	.8	101.325	.111	.0005
299.95	.8	101.325	.1045	.0005
296.65	.8	101.325	.0934	.0005
292.95	.8	101.325	.0852	.0005
291.25	.8	101.325	.0814	.0005
288.45	.8	101.325	.0755	.0005
282.6	.8	101.325	.0703	.0005
279.05	.8	101.325	.0659	.0005

System: .DELTA.5-cholesten-3.beta.-ol + cyclohexane + 1-heptanol; phases: Liquid, Crystal 1, Crystal 2
Fixed: Pressure, kPa = 101
Property: Mole fraction of cyclohexane (Liquid); method: Visual
Temperature, K	Mole fraction of cyclohexane	uncertainty
310	0	.0005
304.6	.1999	.0005
300.2	.3999	.0005
296	.6008	.0005
301.2	.8	.0005

System: .DELTA.5-cholesten-3.beta.-ol + 1-octanol; phases: Liquid, Crystal 1
Fixed: Pressure, kPa = 101
Property: Mole fraction of .DELTA.5-cholesten-3.beta.-ol (Liquid); method: Visual
Temperature, K	Mole fraction of .DELTA.5-cholesten-3.beta.-ol	uncertainty
342.75	.183	.0005
342.05	.1795	.0005
339.35	.1691	.0005
338.45	.1655	.0005
337.65	.1629	.0005
335.35	.1569	.0005
331.75	.1481	.0005
329.75	.1431	.0005
328.2	.1388	.0005
326.45	.1342	.0005
324.25	.1296	.0005
322.95	.1256	.0005
321.65	.1221	.0005
320.05	.1189	.0005
319.15	.1138	.0005

System: .DELTA.5-cholesten-3.beta.-ol + 1-octanol; phases: Liquid, Crystal 2
Fixed: Pressure, kPa = 101
Property: Mole fraction of .DELTA.5-cholesten-3.beta.-ol (Liquid); method: Visual
Temperature, K	Mole fraction of .DELTA.5-cholesten-3.beta.-ol	uncertainty
318.35	.1098	.0005
317.35	.1058	.0005
315.85	.1008	.0005
314.75	.0963	.0005
313.5	.0921	.0005
311.95	.0874	.0005
310.25	.0833	.0005
308.95	.0792	.0005
307.65	.0756	.0005
306.35	.0723	.0005
304.95	.0693	.0005
303.75	.0659	.0005
301.95	.0628	.0005
299.95	.0596	.0005
298.85	.0568	.0005
296.95	.0533	.0005
295.3	.051	.0005
293.95	.0489	.0005
292.75	.0467	.0005
291.5	.0449	.0005
290	.0426	.0005
288.4	.0405	.0005
286.85	.0386	.0005
285.05	.0367	.0005
283.5	.0351	.0005
282.25	.0337	.0005
281.05	.0323	.0005
279.25	.0307	.0005

System: .DELTA.5-cholesten-3.beta.-ol + cyclohexane + 1-octanol; phases: Liquid, Crystal 1
Property: Mole fraction of .DELTA.5-cholesten-3.beta.-ol (Liquid); method: Visual
Temperature, K	Mole fraction of cyclohexane	Pressure, kPa	Mole fraction of .DELTA.5-cholesten-3.beta.-ol	uncertainty
341.85	.2	101.325	.1835	.0005
339.95	.2	101.325	.178	.0005
338.65	.2	101.325	.1737	.0005
336.95	.2	101.325	.1689	.0005
335.65	.2	101.325	.1649	.0005
332.45	.2	101.325	.1577	.0005
329.45	.2	101.325	.1507	.0005
326.45	.2	101.325	.1441	.0005
325.2	.2	101.325	.1405	.0005
322.45	.2	101.325	.1348	.0005
320.65	.2	101.325	.1321	.0005
319.45	.2	101.325	.1298	.0005
316.6	.2	101.325	.1249	.0005
313.35	.2	101.325	.1202	.0005
348.45	.3976	101.325	.2014	.0005
346.35	.3976	101.325	.1962	.0005
342.65	.3976	101.325	.1866	.0005
341.25	.3976	101.325	.182	.0005
336.55	.3976	101.325	.1716	.0005
334.85	.3976	101.325	.168	.0005
332.95	.3976	101.325	.1641	.0005
328.95	.3976	101.325	.1569	.0005
325.65	.3976	101.325	.1475	.0005
322.35	.3976	101.325	.1414	.0005
318.85	.3976	101.325	.1357	.0005
315.55	.3976	101.325	.1308	.0005
312.55	.3976	101.325	.1259	.0005
310.5	.3976	101.325	.1239	.0005
307.95	.3976	101.325	.1195	.0005
305.35	.3976	101.325	.1159	.0005
348.45	.6003	101.325	.1734	.0005
344.65	.6003	101.325	.1687	.0005
340.85	.6003	101.325	.1631	.0005
335.45	.6003	101.325	.153	.0005
332.55	.6003	101.325	.1482	.0005
330.95	.6003	101.325	.1456	.0005
328.35	.6003	101.325	.1419	.0005
326.25	.6003	101.325	.1387	.0005
323.65	.6003	101.325	.1355	.0005
320.95	.6003	101.325	.1322	.0005
317.05	.6003	101.325	.1284	.0005
313.85	.6003	101.325	.1245	.0005
311.05	.6003	101.325	.1215	.0005
308.05	.6003	101.325	.1183	.0005
305.05	.6003	101.325	.1153	.0005
302.45	.6003	101.325	.1128	.0005
298.65	.6003	101.325	.1104	.0005
345.45	.7999	101.325	.161	.0005
341.95	.7999	101.325	.1564	.0005
334.25	.7999	101.325	.1475	.0005
329.25	.7999	101.325	.1425	.0005
325.35	.7999	101.325	.1382	.0005
324.35	.7999	101.325	.1356	.0005
319.95	.7999	101.325	.1303	.0005
316.55	.7999	101.325	.1261	.0005
312.45	.7999	101.325	.121	.0005
308.85	.7999	101.325	.1169	.0005
305.85	.7999	101.325	.1145	.0005
301.85	.7999	101.325	.1108	.0005
296.95	.7999	101.325	.1064	.0005
295.65	.7999	101.325	.1047	.0005
293.75	.7999	101.325	.1019	.0005
291.65	.7999	101.325	.1	.0005

System: .DELTA.5-cholesten-3.beta.-ol + cyclohexane + 1-octanol; phases: Liquid, Crystal 2
Property: Mole fraction of .DELTA.5-cholesten-3.beta.-ol (Liquid); method: Visual
Temperature, K	Mole fraction of cyclohexane	Pressure, kPa	Mole fraction of .DELTA.5-cholesten-3.beta.-ol	uncertainty
309.35	.2	101.325	.1011	.0005
308.4	.2	101.325	.0983	.0005
307.35	.2	101.325	.0954	.0005
306.45	.2	101.325	.0927	.0005
305.25	.2	101.325	.089	.0005
303.75	.2	101.325	.0853	.0005
302.5	.2	101.325	.0823	.0005
300.95	.2	101.325	.0784	.0005
299.75	.2	101.325	.0747	.0005
297.85	.2	101.325	.0714	.0005
296.45	.2	101.325	.0684	.0005
294.45	.2	101.325	.0648	.0005
292.75	.2	101.325	.0618	.0005
291.45	.2	101.325	.059	.0005
289.65	.2	101.325	.0563	.0005
288.45	.2	101.325	.0541	.0005
287.45	.2	101.325	.0518	.0005
284.1	.2	101.325	.0475	.0005
282.55	.2	101.325	.0451	.0005
281.25	.2	101.325	.0429	.0005
279.85	.2	101.325	.0413	.0005
278.65	.2	101.325	.0404	.0005
301.45	.3976	101.325	.0957	.0005
300.45	.3976	101.325	.093	.0005
299.05	.3976	101.325	.0892	.0005
296.95	.3976	101.325	.0838	.0005
294.95	.3976	101.325	.0788	.0005
292.25	.3976	101.325	.0735	.0005
289.55	.3976	101.325	.0691	.0005
287.55	.3976	101.325	.065	.0005
284.65	.3976	101.325	.0614	.0005
282.65	.3976	101.325	.0585	.0005
280.75	.3976	101.325	.054	.0005
278	.3976	101.325	.0505	.0005
295.45	.6003	101.325	.0958	.0005
294.45	.6003	101.325	.0936	.0005
292.95	.6003	101.325	.0899	.0005
291.05	.6003	101.325	.0861	.0005
289.45	.6003	101.325	.0831	.0005
287.85	.6003	101.325	.0801	.0005
286.35	.6003	101.325	.0775	.0005
285.35	.6003	101.325	.0762	.0005
282.75	.6003	101.325	.0706	.0005
280.95	.6003	101.325	.0672	.0005
279.35	.6003	101.325	.0642	.0005
277.55	.6003	101.325	.0613	.0005
289.25	.7999	101.325	.0953	.0005
286.95	.7999	101.325	.0922	.0005
285.35	.7999	101.325	.0892	.0005
283.55	.7999	101.325	.0865	.0005
281.95	.7999	101.325	.0839	.0005
280.95	.7999	101.325	.0826	.0005
277.65	.7999	101.325	.0783	.0005

System: .DELTA.5-cholesten-3.beta.-ol + cyclohexane + 1-octanol; phases: Liquid, Crystal 1, Crystal 2
Fixed: Pressure, kPa = 101
Property: Mole fraction of cyclohexane (Liquid); method: Visual
Temperature, K	Mole fraction of cyclohexane	uncertainty
319.1	0	.0005
312.4	.2	.0005
304.4	.3976	.0005
298.6	.6003	.0005
291.6	.7999	.0005

System: .DELTA.5-cholesten-3.beta.-ol + cyclohexane + 1-octanol; phases: Crystal 1, Metastable crystal
Fixed: Pressure, kPa = 101
Property: Mole fraction of .DELTA.5-cholesten-3.beta.-ol (Crystal 1); method: Visual
Temperature, K	Mole fraction of cyclohexane	Mole fraction of .DELTA.5-cholesten-3.beta.-ol	uncertainty
307.65	.2	.1116	.0005
304.75	.2	.1077	.0005
301.85	.2	.1043	.0005
301.25	.3976	.1121	.0005
298.95	.3976	.1084	.0005
296.85	.3976	.105	.0005
295.15	.3976	.1018	.0005
293.55	.3976	.0987	.0005
297.65	.6003	.1079	.0005
295.65	.6003	.106	.0005
293.55	.6003	.1036	.0005
292.2	.6003	.1017	.0005
290.5	.6003	.0997	.0005
289.25	.6003	.098	.0005

System: .DELTA.5-cholesten-3.beta.-ol + 1-nonanol; phases: Liquid, Crystal 1
Fixed: Pressure, kPa = 101
Property: Mole fraction of .DELTA.5-cholesten-3.beta.-ol (Liquid); method: Visual
Temperature, K	Mole fraction of .DELTA.5-cholesten-3.beta.-ol	uncertainty
350.35	.1869	.0005
348.25	.1779	.0005
346.95	.1704	.0005
344.95	.1625	.0005
341.35	.1557	.0005

System: .DELTA.5-cholesten-3.beta.-ol + 1-nonanol; phases: Liquid, Crystal 2
Fixed: Pressure, kPa = 101
Property: Mole fraction of .DELTA.5-cholesten-3.beta.-ol (Liquid); method: Visual
Temperature, K	Mole fraction of .DELTA.5-cholesten-3.beta.-ol	uncertainty
340.15	.1501	.0005
339.25	.1456	.0005
337.75	.1379	.0005
335.75	.1286	.0005
333.75	.1183	.0005
331.55	.1084	.0005
329.55	.0992	.0005
327.05	.0911	.0005
324.95	.0833	.0005
321.45	.0747	.0005
318.15	.067	.0005
315.25	.0598	.0005
310.85	.0518	.0005
306.95	.0454	.0005
304.25	.04	.0005
298.85	.0341	.0005
294.55	.0294	.0005
289.75	.0253	.0005
284.85	.0216	.0005
280.65	.0184	.0005

System: .DELTA.5-cholesten-3.beta.-ol + cyclohexane + 1-nonanol; phases: Liquid, Crystal 1
Property: Mole fraction of .DELTA.5-cholesten-3.beta.-ol (Liquid); method: Visual
Temperature, K	Mole fraction of cyclohexane	Pressure, kPa	Mole fraction of .DELTA.5-cholesten-3.beta.-ol	uncertainty
348.15	.1999	101.325	.1758	.0005
347.35	.1999	101.325	.1726	.0005
344.85	.1999	101.325	.1632	.0005
343.25	.1999	101.325	.1564	.0005
338.85	.1999	101.325	.148	.0005
348.15	.4004	101.325	.1747	.0005
345.15	.4004	101.325	.1643	.0005
341.95	.4004	101.325	.1558	.0005
338.95	.4004	101.325	.1478	.0005
336.25	.4004	101.325	.1422	.0005
332.55	.4004	101.325	.1357	.0005
328.45	.4004	101.325	.1291	.0005
344.65	.5981	101.325	.173	.0005
342.95	.5981	101.325	.1679	.0005
342.65	.5981	101.325	.1648	.0005
338.25	.5981	101.325	.1568	.0005
337.25	.5981	101.325	.1522	.0005
334.75	.5981	101.325	.1474	.0005
332.65	.5981	101.325	.1427	.0005
331.75	.5981	101.325	.1415	.0005
327.55	.5981	101.325	.133	.0005
319.65	.5981	101.325	.128	.0005
341.95	.7987	101.325	.1545	.0005
339.45	.7987	101.325	.1488	.0005
334.65	.7987	101.325	.1365	.0005
331.25	.7987	101.325	.1318	.0005
329.45	.7987	101.325	.1288	.0005
320.35	.7987	101.325	.12	.0005
314.65	.7987	101.325	.1133	.0005
310.85	.7987	101.325	.1082	.0005
305.95	.7987	101.325	.1021	.0005
302.35	.7987	101.325	.0971	.0005

System: .DELTA.5-cholesten-3.beta.-ol + cyclohexane + 1-nonanol; phases: Liquid, Crystal 2
Property: Mole fraction of .DELTA.5-cholesten-3.beta.-ol (Liquid); method: Visual
Temperature, K	Mole fraction of cyclohexane	Pressure, kPa	Mole fraction of .DELTA.5-cholesten-3.beta.-ol	uncertainty
336.55	.19999	101.325	.1409	.0005
334.25	.19999	101.325	.1314	.0005
331.95	.19999	101.325	.1219	.0005
330.05	.19999	101.325	.1148	.0005
331.95	.19999	101.325	.1219	.0005
330.05	.19999	101.325	.1148	.0005
327.25	.19999	101.325	.1061	.0005
325.15	.19999	101.325	.0978	.0005
322.45	.19999	101.325	.0898	.0005
318.75	.19999	101.325	.081	.0005
315.05	.19999	101.325	.0723	.0005
311.35	.19999	101.325	.0652	.0005
308.15	.19999	101.325	.0592	.0005
304.05	.19999	101.325	.0527	.0005
300.75	.19999	101.325	.0474	.0005
296.95	.19999	101.325	.0423	.0005
292.15	.19999	101.325	.0374	.0005
288.15	.19999	101.325	.0334	.0005
283.95	.19999	101.325	.0295	.0005
278.65	.19999	101.325	.0251	.0005
326.95	.4004	101.325	.124	.0005
324.35	.4004	101.325	.1163	.0005
321.75	.4004	101.325	.1092	.0005
319.25	.4004	101.325	.1032	.0005
317.05	.4004	101.325	.0976	.0005
314.55	.4004	101.325	.0914	.0005
312	.4004	101.325	.0857	.0005
308.75	.4004	101.325	.0791	.0005
305.85	.4004	101.325	.0736	.0005
302.5	.4004	101.325	.0677	.0005
299.45	.4004	101.325	.0627	.0005
296.4	.4004	101.325	.0577	.0005
292.65	.4004	101.325	.0522	.0005
287.85	.4004	101.325	.0466	.0005
283.35	.4004	101.325	.0415	.0005
278.05	.4004	101.325	.0358	.0005
317.85	.5981	101.325	.1242	.0005
315.2	.5981	101.325	.1173	.0005
312.9	.5981	101.325	.1112	.0005
309.95	.5981	101.325	.1035	.0005
307.15	.5981	101.325	.097	.0005
303.75	.5981	101.325	.0895	.0005
300.35	.5981	101.325	.0821	.0005
296.75	.5981	101.325	.0754	.0005
293.45	.5981	101.325	.0679	.0005
288.55	.5981	101.325	.0606	.0005
283.95	.5981	101.325	.0544	.0005
279.85	.5981	101.325	.0493	.0005
275.25	.5981	101.325	.0441	.0005
299.95	.7987	101.325	.0923	.0005
298.05	.7987	101.325	.0884	.0005
296.15	.7987	101.325	.0846	.0005
293.65	.7987	101.325	.0795	.0005
290.65	.7987	101.325	.0739	.0005
287.55	.7987	101.325	.068	.0005
283.35	.7987	101.325	.0611	.0005
278.15	.7987	101.325	.0533	.0005

System: .DELTA.5-cholesten-3.beta.-ol + cyclohexane + 1-nonanol; phases: Liquid, Crystal 1, Crystal 2
Fixed: Pressure, kPa = 101
Property: Mole fraction of cyclohexane (Liquid); method: Visual
Temperature, K	Mole fraction of cyclohexane	uncertainty
340.5	0	.0005
337	.1999	.0005
328.4	.4004	.0005
318.8	.5981	.0005
302.3	.7987	.0005

System: .DELTA.5-cholesten-3.beta.-ol + 1-decanol; phases: Liquid, Crystal 1
Fixed: Pressure, kPa = 101
Property: Mole fraction of .DELTA.5-cholesten-3.beta.-ol (Liquid); method: Visual
Temperature, K	Mole fraction of .DELTA.5-cholesten-3.beta.-ol	uncertainty
350.75	.2389	.0005
348.55	.2312	.0005
347.65	.226	.0005
346.85	.2219	.0005
345.15	.2142	.0005
343.95	.2124	.0005
342.55	.2048	.0005
339.15	.1919	.0005
335.45	.1838	.0005
335.35	.1795	.0005
331.15	.1672	.0005
326.95	.1574	.0005
322.75	.1496	.0005
317.05	.1374	.0005

System: .DELTA.5-cholesten-3.beta.-ol + 1-decanol; phases: Liquid, Crystal 2
Fixed: Pressure, kPa = 101
Property: Mole fraction of .DELTA.5-cholesten-3.beta.-ol (Liquid); method: Visual
Temperature, K	Mole fraction of .DELTA.5-cholesten-3.beta.-ol	uncertainty
305.75	.1268	.0005
303.65	.1177	.0005
301.35	.1078	.0005
298.75	.0993	.0005
296.35	.0914	.0005
293.35	.0826	.0005
289.55	.0727	.0005
285.35	.0636	.0005
281.25	.0573	.0005

System: .DELTA.5-cholesten-3.beta.-ol + 1-decanol; phases: Liquid, Crystal
Fixed: Pressure, kPa = 101
Property: Mole fraction of .DELTA.5-cholesten-3.beta.-ol (Liquid); method: Visual
Temperature, K	Mole fraction of .DELTA.5-cholesten-3.beta.-ol	uncertainty
278.45	.0516	.0005
278.75	.0463	.0005
278.85	.0401	.0005
279.1	.0327	.0005
279.65	.0227	.0005
280.15	0	.0005

System: .DELTA.5-cholesten-3.beta.-ol + cyclohexane + 1-decanol; phases: Liquid, Crystal 1
Property: Mole fraction of .DELTA.5-cholesten-3.beta.-ol (Liquid); method: Visual
Temperature, K	Mole fraction of cyclohexane	Pressure, kPa	Mole fraction of .DELTA.5-cholesten-3.beta.-ol	uncertainty
350.65	.1999	101.325	.2154	.0005
347.15	.1999	101.325	.2036	.0005
342.95	.1999	101.325	.1905	.0005
339.25	.1999	101.325	.1791	.0005
335.35	.1999	101.325	.1704	.0005
331.15	.1999	101.325	.1623	.0005
327.35	.1999	101.325	.1536	.0005
323.75	.1999	101.325	.1467	.0005
320.35	.1999	101.325	.14	.0005
315.95	.1999	101.325	.1349	.0005
302.35	.1999	101.325	.1264	.0005
347.95	.4004	101.325	.1978	.0005
344.65	.4004	101.325	.188	.0005
340.35	.4004	101.325	.18	.0005
335.65	.4004	101.325	.1687	.0005
331.35	.4004	101.325	.16	.0005
326.95	.4004	101.325	.1542	.0005
325.65	.4004	101.325	.1512	.0005
320.95	.4004	101.325	.145	.0005
319.55	.4004	101.325	.1421	.0005
315.15	.4004	101.325	.1356	.0005
311.65	.4004	101.325	.1307	.0005
297.65	.4004	101.325	.1253	.0005
341.15	.5999	101.325	.19	.0005
340.25	.5999	101.325	.1864	.0005
338.55	.5999	101.325	.1826	.0005
337.35	.5999	101.325	.1784	.0005
335.15	.5999	101.325	.1731	.0005
332.45	.5999	101.325	.1675	.0005
329.35	.5999	101.325	.16	.0005
326.45	.5999	101.325	.1547	.0005
323.15	.5999	101.325	.1492	.0005
317.45	.5999	101.325	.1404	.0005
312.45	.5999	101.325	.1334	.0005
308.15	.5999	101.325	.1267	.0005
303.25	.5999	101.325	.1207	.0005
349.55	.8005	101.325	.1887	.0005
349.15	.8005	101.325	.1854	.0005
344.95	.8005	101.325	.1767	.0005
341.85	.8005	101.325	.1714	.0005
339.05	.8005	101.325	.1652	.0005
335.35	.8005	101.325	.1582	.0005
332.75	.8005	101.325	.1518	.0005
326.55	.8005	101.325	.1434	.0005
322.35	.8005	101.325	.1393	.0005
318.55	.8005	101.325	.1329	.0005
315.35	.8005	101.325	.1277	.0005
310.65	.8005	101.325	.1229	.0005
308.05	.8005	101.325	.118	.0005
304.15	.8005	101.325	.113	.0005
300.85	.8005	101.325	.1086	.0005
295.85	.8005	101.325	.1046	.0005
292.35	.8005	101.325	.1003	.0005

System: .DELTA.5-cholesten-3.beta.-ol + cyclohexane + 1-decanol; phases: Liquid, Crystal 2
Property: Mole fraction of .DELTA.5-cholesten-3.beta.-ol (Liquid); method: Visual
Temperature, K	Mole fraction of cyclohexane	Pressure, kPa	Mole fraction of .DELTA.5-cholesten-3.beta.-ol	uncertainty
300.65	.1999	101.325	.1194	.0005
298.85	.1999	101.325	.1121	.0005
297.05	.1999	101.325	.1044	.0005
295.35	.1999	101.325	.0981	.0005
292.05	.1999	101.325	.0895	.0005
288.25	.1999	101.325	.0816	.0005
284.75	.1999	101.325	.0731	.0005
279.65	.1999	101.325	.063	.0005
276.65	.1999	101.325	.0558	.0005
295.95	.4004	101.325	.1232	.0005
294.65	.4004	101.325	.1186	.0005
292.75	.4004	101.325	.112	.0005
290.35	.4004	101.325	.1043	.0005
287.65	.4004	101.325	.0953	.0005
283.95	.4004	101.325	.0866	.0005
280.15	.4004	101.325	.0767	.0005
274.55	.4004	101.325	.0656	.0005
289.05	.5999	101.325	.1151	.0005
287.05	.5999	101.325	.109	.0005
285.05	.5999	101.325	.1026	.0005
282.35	.5999	101.325	.0953	.0005
279.85	.5999	101.325	.088	.0005
275.45	.5999	101.325	.0769	.0005
279.35	.8005	101.325	.0955	.0005
277.75	.8005	101.325	.0913	.0005
276.35	.8005	101.325	.0867	.0005
273.85	.8005	101.325	.0805	.0005

System: .DELTA.5-cholesten-3.beta.-ol + cyclohexane + 1-decanol; phases: Liquid, Crystal 1, Crystal 2
Fixed: Pressure, kPa = 101
Property: Mole fraction of cyclohexane (Liquid); method: Visual
Temperature, K	Mole fraction of cyclohexane	uncertainty
305.7	0	.0005
301.6	.1999	.0005
296.2	.4004	.0005
303.2	.5999	.0005
292.3	.8005	.0005
