Measured thermophysical data. Vapor pressure and isobaric vapor-liquid equilibrium for dichloronitrobenzene isomers
Source: Fluid Phase Equilib., 2014, 10.1016/j.fluid.2014.01.034
Compound 1: 3,4-dichloronitrobenzene, C6H3Cl2NO2
Compound 2: 2,3-dichloronitrobenzene, C6H3Cl2NO2

System: 3,4-dichloronitrobenzene; phases: Liquid
Fixed: Pressure, kPa = 101.325
Property: Mass density, kg/m3 (Liquid); method: Vibrating tube method
Temperature, K	Mass density, kg/m3	uncertainty
348.15	1533	1

System: 3,4-dichloronitrobenzene; phases: Crystal, Liquid, Air at 1 atmosphere
Property: Normal melting temperature, K (Crystal); method: DSC/DTA
Normal melting temperature, K	uncertainty
315.4	.5

System: 3,4-dichloronitrobenzene; phases: Crystal, Liquid, Air at 1 atmosphere
Property: Molar enthalpy of transition or fusion, kJ/mol (Crystal); method: DSC/DTA
Molar enthalpy of transition or fusion, kJ/mol	uncertainty
17.75	.5325

System: 3,4-dichloronitrobenzene; phases: Liquid, Gas
Property: Boiling temperature at pressure P, K (Liquid); method: Ebulliometric method (Recirculating still)
Pressure, kPa	Boiling temperature at pressure P, K	uncertainty
3.01	416.74	.02
4.22	425.02	.02
4.98	429.25	.02
5.82	433.24	.02
6.97	438.05	.02
7.4	439.69	.02
9.08	445.43	.02
9.77	447.44	.02
11.5	452.09	.02
12.15	453.81	.02
13.41	456.61	.02
15.01	460.13	.02
16.24	462.43	.02
17.48	464.81	.02
19.68	468.52	.02
21.06	470.68	.02
24.35	475.43	.02
25.56	476.93	.02
26.76	478.47	.02
31.46	483.94	.02
34.27	486.9	.02
36.87	489.48	.02
41.72	493.9	.02
45.99	497.47	.02
51.49	501.67	.02
55.34	504.38	.02
61.61	508.52	.02
65.28	510.73	.02
70.2	513.66	.02
74.34	515.85	.02
79.67	518.65	.02
83.95	520.79	.02
89.76	523.52	.02
94.77	525.76	.02
98.14	527.23	.02
101.3	528.59	.02

System: 2,3-dichloronitrobenzene; phases: Liquid
Fixed: Pressure, kPa = 101.325
Property: Mass density, kg/m3 (Liquid); method: Vibrating tube method
Temperature, K	Mass density, kg/m3	uncertainty
348.15	1533	1

System: 2,3-dichloronitrobenzene; phases: Crystal, Liquid, Air at 1 atmosphere
Property: Normal melting temperature, K (Crystal); method: DSC/DTA
Normal melting temperature, K	uncertainty
334.9	.5

System: 2,3-dichloronitrobenzene; phases: Crystal, Liquid, Air at 1 atmosphere
Property: Molar enthalpy of transition or fusion, kJ/mol (Crystal); method: DSC/DTA
Molar enthalpy of transition or fusion, kJ/mol	uncertainty
22.31	.6693

System: 2,3-dichloronitrobenzene; phases: Liquid, Gas
Property: Boiling temperature at pressure P, K (Liquid); method: Ebulliometric method (Recirculating still)
Pressure, kPa	Boiling temperature at pressure P, K	uncertainty
3.26	421.76	.02
3.72	424.88	.02
4.07	427.04	.02
5.48	434.41	.02
6.14	437.31	.02
7.17	441.37	.02
8.84	447	.02
10.02	450.46	.02
11.41	454.13	.02
12.61	457.01	.02
13.71	459.45	.02
15.55	463.2	.02
16.52	465.03	.02
18.33	468.31	.02
20.52	471.84	.02
21.66	473.45	.02
22.76	475.04	.02
25.1	478.21	.02
27.58	481.32	.02
30.63	484.84	.02
35.11	489.53	.02
40.91	494.91	.02
46.97	499.92	.02
50.86	502.86	.02
54.85	505.69	.02
57.81	507.79	.02
61.11	509.92	.02
63.43	511.26	.02
65.25	512.37	.02
70.98	515.68	.02
76.92	518.9	.02
80.62	520.81	.02
85.76	523.34	.02
91.3	525.94	.02
96.08	528.09	.02
101.3	530.33	.02

System: 3,4-dichloronitrobenzene + 2,3-dichloronitrobenzene; phases: Liquid, Gas
Property: Boiling temperature at pressure P, K (Liquid); method: Ebulliometric method (Recirculating still)
Mole fraction of 3,4-dichloronitrobenzene	Pressure, kPa	Boiling temperature at pressure P, K	uncertainty
0	101.3	530.33	.02
.046	101.3	530.2	.02
.112	101.3	530.02	.02
.193	101.3	529.82	.02
.293	101.3	529.59	.02
.388	101.3	529.4	.02
.517	101.3	529.16	.02
.602	101.3	529.03	.02
.66	101.3	528.94	.02
.74	101.3	528.84	.02
.804	101.3	528.76	.02
.865	101.3	528.7	.02
.905	101.3	528.66	.02
.948	101.3	528.63	.02
1	101.3	528.59	.02
0	60	509.18	.02
.045	60	509.01	.02
.112	60	508.84	.02
.192	60	508.65	.02
.294	60	508.43	.02
.387	60	508.25	.02
.519	60	508.02	.02
.602	60	507.89	.02
.66	60	507.81	.02
.742	60	507.71	.02
.805	60	507.64	.02
.864	60	507.58	.02
.905	60	507.54	.02
.949	60	507.5	.02
1	60	507.46	.02
0	20	470.95	.02
.046	20	470.82	.02
.113	20	470.64	.02
.193	20	470.43	.02
.292	20	470.2	.02
.388	20	469.99	.02
.518	20	469.72	.02
.603	20	469.57	.02
.66	20	469.47	.02
.739	20	469.35	.02
.805	20	469.25	.02
.864	20	469.17	.02
.907	20	469.11	.02
.948	20	469.06	.02
1	20	469	.02

System: 3,4-dichloronitrobenzene + 2,3-dichloronitrobenzene; phases: Gas, Liquid
Property: Mole fraction of 3,4-dichloronitrobenzene (Gas); method: Chromatography
Mole fraction of 3,4-dichloronitrobenzene	Pressure, kPa	Mole fraction of 3,4-dichloronitrobenzene	uncertainty
0	101.3	0	.001
.046	101.3	.049	.001
.112	101.3	.118	.001
.193	101.3	.201	.001
.293	101.3	.303	.001
.388	101.3	.399	.001
.517	101.3	.528	.001
.602	101.3	.611	.001
.66	101.3	.668	.001
.74	101.3	.746	.001
.804	101.3	.808	.001
.865	101.3	.868	.001
.905	101.3	.907	.001
.948	101.3	.949	.001
1	101.3	1	.001
0	60	0	.001
.045	60	.048	.001
.112	60	.119	.001
.192	60	.201	.001
.294	60	.305	.001
.387	60	.399	.001
.519	60	.529	.001
.602	60	.611	.001
.66	60	.667	.001
.742	60	.747	.001
.805	60	.809	.001
.864	60	.867	.001
.905	60	.907	.001
.949	60	.95	.001
1	60	1	.001
0	20	0	.001
.046	20	.05	.001
.113	20	.122	.001
.193	20	.205	.001
.292	20	.307	.001
.388	20	.404	.001
.518	20	.534	.001
.603	20	.617	.001
.66	20	.672	.001
.739	20	.748	.001
.805	20	.812	.001
.864	20	.869	.001
.907	20	.91	.001
.948	20	.95	.001
1	20	1	.001
