Measured thermophysical data. Experimental investigation of the solid-liquid phase eqilibria in the water - ammonium methanesulfonate and in the water - sodium methanesulfonate systems
Source: Fluid Phase Equilib., 2017, 10.1016/j.fluid.2017.04.006
Compound 1: sodium methanesulfonate, CH3NaO3S
Compound 2: ammonium methanesulfonate, CH7NO3S
Compound 3: water, H2O, purity 99.8%

System: sodium methanesulfonate; phases: Crystal, Liquid, Air at 1 atmosphere
Property: Triple point temperature, K (Crystal); method: DSC
Triple point temperature, K	uncertainty
625.95	.100000000000023

System: sodium methanesulfonate; phases: Crystal, Liquid, Air at 1 atmosphere
Property: Molar enthalpy of transition or fusion, kJ/mol (Crystal); method: DSC
Molar enthalpy of transition or fusion, kJ/mol	uncertainty
24.04	.06

System: ammonium methanesulfonate; phases: Crystal 2, Crystal 1, Air at 1 atmosphere
Property: Triple point temperature, K (Crystal 2); method: DSC
Triple point temperature, K	uncertainty
463.05	.5

System: ammonium methanesulfonate; phases: Crystal 1, Liquid, Air at 1 atmosphere
Property: Triple point temperature, K (Crystal 1); method: DSC
Triple point temperature, K	uncertainty
470.05	.800000000000011

System: ammonium methanesulfonate; phases: Crystal 2, Crystal 1, Air at 1 atmosphere
Property: Molar enthalpy of transition or fusion, kJ/mol (Crystal 2); method: DSC
Molar enthalpy of transition or fusion, kJ/mol	uncertainty
9.7	.1

System: ammonium methanesulfonate; phases: Crystal 1, Liquid, Air at 1 atmosphere
Property: Molar enthalpy of transition or fusion, kJ/mol (Crystal 1); method: DSC
Molar enthalpy of transition or fusion, kJ/mol	uncertainty
8.5	.2

System: water + ammonium methanesulfonate; phases: Crystal, Crystal, Liquid, Air at 1 atmosphere
Fixed: Pressure, kPa = 101.325
Property: Eutectic temperature, K (Crystal); method: DSC/DTA
Eutectic temperature, K	uncertainty
247.15	

System: water + ammonium methanesulfonate; phases: Liquid, Crystal
Fixed: Pressure, kPa = 101
Property: Solid-liquid equilibrium temperature, K (Liquid); method: DSC/DTA
Mole fraction of ammonium methanesulfonate	Solid-liquid equilibrium temperature, K	uncertainty
.0083	271.65	
.0084	271.95	
.0084	271.75	
.0173	269.55	
.0384	264.45	
.0642	258.05	
.0785	254.25	

System: water + ammonium methanesulfonate; phases: Liquid, Crystal
Fixed: Pressure, kPa = 101
Property: Solid-liquid equilibrium temperature, K (Liquid); method: Solubility
Mole fraction of ammonium methanesulfonate	Solid-liquid equilibrium temperature, K	uncertainty
.1203	251.55	
.1189	251.55	
.1223	251.55	
.1369	262.35	
.1628	278.15	
.1865	288.15	
.2069	298.15	
.2157	303.15	

System: water + ammonium methanesulfonate; phases: Liquid
Fixed: Pressure, kPa = 97.59
Fixed: Temperature, K = 298.15
Property: Mass density, kg/m3 (Liquid); method: Vibrating tube method
Mole fraction of ammonium methanesulfonate	Mass density, kg/m3	uncertainty
.0085	1014.9	
.0178	1033.1	
.0275	1050.8	
.0381	1068.7	
.051	1088.7	
.0648	1108.4	
.0951	1146.2	
.1144	1166.9	
.1387	1190.3	

System: sodium methanesulfonate + water; phases: Crystal, Crystal of intercomponent compound 1, Liquid, Air at 1 atmosphere
Fixed: Pressure, kPa = 101.325
Property: Peritectic temperature, K (Crystal); method: DSC/DTA
Peritectic temperature, K	uncertainty
251.75	

System: sodium methanesulfonate + water; phases: Crystal, Crystal of intercomponent compound 1, Liquid, Air at 1 atmosphere
Fixed: Pressure, kPa = 101.325
Property: Eutectic temperature, K (Crystal); method: DSC/DTA
Eutectic temperature, K	uncertainty
243.55	

System: sodium methanesulfonate + water; phases: Liquid
Fixed: Pressure, kPa = 97.59
Fixed: Temperature, K = 298.15
Property: Mass density, kg/m3 (Liquid); method: Vibrating tube method
Mole fraction of sodium methanesulfonate	Mass density, kg/m3	uncertainty
.008	1025	
.0188	1059.9	
.0358	1110.4	
.0438	1132.7	
.0621	1179.8	
.0743	1209.3	
.0952	1255.7	
.1087	1283.5	
.1247	1313.8	

System: sodium methanesulfonate + water; phases: Liquid, Crystal
Fixed: Pressure, kPa = 101
Property: Solid-liquid equilibrium temperature, K (Liquid); method: DSC/DTA
Mole fraction of sodium methanesulfonate	Solid-liquid equilibrium temperature, K	uncertainty
.0075	271.85	
.0158	269.85	
.026	267.05	
.0343	265.25	
.0472	261.05	
.0472	260.95	
.0472	260.85	
.0598	258.45	
.078	253.15	

System: sodium methanesulfonate + water; phases: Liquid, Crystal
Fixed: Pressure, kPa = 101
Property: Solid-liquid equilibrium temperature, K (Liquid); method: Solubility
Mole fraction of sodium methanesulfonate	Solid-liquid equilibrium temperature, K	uncertainty
.1085	251.55	
.113	251.55	
.1115	251.55	
.1188	262.35	
.124	278.15	
.1298	288.15	
.1352	298.15	
.1319	298.15	
.1356	303.15	
.1411	308.15	
.1403	318.15	
.1449	323.15	
