Measured thermophysical data. Prediction of density, viscosity, and conductivity of ternary aqueous solutions of piperidinium-based ILs at different temperatures and atmospheric pressure using the data of their binary subsystems
Source: Fluid Phase Equilib., 2014, 10.1016/j.fluid.2014.09.020
Compound 1: N-ethyl-N-methylpiperidinium bromide, C8H18BrN, purity 99%
Compound 2: N-methyl-N-propylpiperidinium bromide, C9H20BrN, purity 99%
Compound 3: N-butyl-N-methylpiperidinium bromide, C10H22BrN, purity 99%
Compound 4: water, H2O, purity 99%

System: water + N-ethyl-N-methylpiperidinium bromide; phases: Liquid
Fixed: Pressure, kPa = 101
Property: Mass density, kg/m3 (Liquid); method: Vibrating tube method
Temperature, K	Molality, mol/kg of N-ethyl-N-methylpiperidinium bromide	Mass density, kg/m3	uncertainty
293.15	.2501	1009.34	.05
293.15	.5	1019.49	.05
293.15	.75	1029.24	.05
293.15	.9992	1038.65	.05
293.15	1.25	1047.4	.05
293.15	1.4999	1055.5	.05
293.15	1.7499	1063.82	.05
293.15	1.9984	1071.67	.05
293.15	2.2001	1077.12	.05
293.15	2.4001	1082.45	.05
298.15	.2501	1007.59	.05
298.15	.5	1017.73	.05
298.15	.75	1027.52	.05
298.15	.9992	1036.99	.05
298.15	1.25	1045.62	.05
298.15	1.4999	1053.61	.05
298.15	1.7499	1061.89	.05
298.15	1.9984	1069.59	.05
298.15	2.2001	1074.97	.05
298.15	2.4001	1080.2	.05
303.15	.2501	1005.68	.05
303.15	.5	1015.67	.05
303.15	.75	1025.8	.05
303.15	.9992	1034.64	.05
303.15	1.25	1043.44	.05
303.15	1.4999	1051.59	.05
303.15	1.7499	1059.87	.05
303.15	1.9984	1067.36	.05
303.15	2.2001	1072.73	.05
303.15	2.4001	1077.82	.05
308.15	.2501	1003.67	.05
308.15	.5	1013.78	.05
308.15	.75	1023.78	.05
308.15	.9992	1032.63	.05
308.15	1.25	1041.4	.05
308.15	1.4999	1049.3	.05
308.15	1.7499	1057.7	.05
308.15	1.9984	1064.48	.05
308.15	2.2001	1070.15	.05
308.15	2.4001	1075.12	.05

System: water + N-ethyl-N-methylpiperidinium bromide; phases: Liquid
Fixed: Pressure, kPa = 101
Property: Viscosity, Pa*s (Liquid); method: Capillary tube (Ostwald; Ubbelohde) method
Temperature, K	Molality, mol/kg of N-ethyl-N-methylpiperidinium bromide	Viscosity, Pa*s	uncertainty
293.15	.2501	.0014124	.000014124
293.15	.5	.0014324	.000014324
293.15	.75	.0014921	.000014921
293.15	.9992	.0015875	.000015875
293.15	1.25	.0017067	.000017067
293.15	1.4999	.0018485	.000018485
293.15	1.7499	.0020211	.000020211
293.15	1.9984	.0022077	.000022077
293.15	2.2001	.0023611	.000023611
293.15	2.4001	.0025213	.000025213
298.15	.2501	.0012536	.000012536
298.15	.5	.0012739	.000012739
298.15	.75	.0013253	.000013253
298.15	.9992	.0014007	.000014007
298.15	1.25	.0015161	.000015161
298.15	1.4999	.0016552	.000016552
298.15	1.7499	.0017873	.000017873
298.15	1.9984	.0019319	.000019319
298.15	2.2001	.0020688	.000020688
298.15	2.4001	.0022001	.000022001
303.15	.2501	.0010375	.000010375
303.15	.5	.0010905	.000010905
303.15	.75	.0011615	.000011615
303.15	.9992	.0012481	.000012481
303.15	1.25	.0013486	.000013486
303.15	1.4999	.0014604	.000014604
303.15	1.7499	.0015827	.000015827
303.15	1.9984	.0017118	.000017118
303.15	2.2001	.0018204	.000018204
303.15	2.4001	.0019309	.000019309
308.15	.2501	.0008791	.000008791
308.15	.5	.0009294	.000009294
308.15	.75	.0009953	.000009953
308.15	.9992	.0010743	.000010743
308.15	1.25	.0011634	.000011634
308.15	1.4999	.0012599	.000012599
308.15	1.7499	.0013634	.000013634
308.15	1.9984	.0014691	.000014691
308.15	2.2001	.0015545	.000015545
308.15	2.4001	.0016385	.000016385

System: water + N-ethyl-N-methylpiperidinium bromide; phases: Liquid
Fixed: Pressure, kPa = 101
Property: Electrical conductivity, S/m (Liquid); method: Direct current cell with electrodes
Temperature, K	Molality, mol/kg of N-ethyl-N-methylpiperidinium bromide	Electrical conductivity, S/m	uncertainty
293.15	.2501	1.67	.02
293.15	.5	2.69	.02
293.15	.75	3.46	.02
293.15	.9992	4.01	.02
293.15	1.25	4.41	.02
293.15	1.4999	4.68	.02
293.15	1.7499	4.84	.02
293.15	1.9984	4.94	.02
293.15	2.2001	5.03	.02
293.15	2.4001	5.12	.02
298.15	.2501	1.94	.02
298.15	.5	2.92	.02
298.15	.75	3.72	.02
298.15	.9992	4.36	.02
298.15	1.25	4.82	.02
298.15	1.4999	5.14	.02
298.15	1.7499	5.42	.02
298.15	1.9984	5.61	.02
298.15	2.2001	5.68	.02
298.15	2.4001	5.73	.02
303.15	.2501	2.02	.02
303.15	.5	3.08	.02
303.15	.75	3.95	.02
303.15	.9992	4.65	.02
303.15	1.25	5.15	.02
303.15	1.4999	5.5	.02
303.15	1.7499	5.81	.02
303.15	1.9984	6.02	.02
303.15	2.2001	6.09	.02
303.15	2.4001	6.15	.02
308.15	.2501	2.24	.02
308.15	.5	3.29	.02
308.15	.75	4.2	.02
308.15	.9992	4.98	.02
308.15	1.25	5.54	.02
308.15	1.4999	5.93	.02
308.15	1.7499	6.34	.02
308.15	1.9984	6.61	.02
308.15	2.2001	6.66	.02
308.15	2.4001	6.69	.02

System: water + N-methyl-N-propylpiperidinium bromide; phases: Liquid
Fixed: Pressure, kPa = 101
Property: Mass density, kg/m3 (Liquid); method: Vibrating tube method
Temperature, K	Molality, mol/kg of N-methyl-N-propylpiperidinium bromide	Mass density, kg/m3	uncertainty
293.15	.2501	1008.72	.05
293.15	.5	1018.24	.05
293.15	.75	1027.42	.05
293.15	.9998	1036.22	.05
293.15	1.2501	1044.44	.05
293.15	1.5002	1052.29	.05
293.15	1.75	1059.77	.05
293.15	2.0007	1066.77	.05
293.15	2.2	1072.13	.05
298.15	.2501	1007.5	.05
298.15	.5	1016.88	.05
298.15	.75	1025.92	.05
298.15	.9998	1034.59	.05
298.15	1.2501	1042.69	.05
298.15	1.5002	1050.42	.05
298.15	1.75	1057.79	.05
298.15	2.0007	1064.7	.05
298.15	2.2	1069.98	.05
303.15	.2501	1006.09	.05
303.15	.5	1015.33	.05
303.15	.75	1024.23	.05
303.15	.9998	1032.75	.05
303.15	1.2501	1040.75	.05
303.15	1.5002	1048.38	.05
303.15	1.75	1055.64	.05
303.15	2.0007	1062.46	.05
303.15	2.2	1067.67	.05
308.15	.2501	1004.66	.05
308.15	.5	1013.72	.05
308.15	.75	1022.62	.05
308.15	.9998	1030.82	.05
308.15	1.2501	1038.67	.05
308.15	1.5002	1046.1	.05
308.15	1.75	1053.72	.05
308.15	2.0007	1060.11	.05
308.15	2.2	1065.32	.05
293.15	2.3996	1077.21	.05
298.15	2.3996	1074.98	.05
303.15	2.3996	1072.61	.05
308.15	2.3996	1070.23	.05

System: water + N-methyl-N-propylpiperidinium bromide; phases: Liquid
Fixed: Pressure, kPa = 101
Property: Viscosity, Pa*s (Liquid); method: Capillary tube (Ostwald; Ubbelohde) method
Temperature, K	Molality, mol/kg of N-methyl-N-propylpiperidinium bromide	Viscosity, Pa*s	uncertainty
293.15	.2501	.0012907	.000012907
293.15	.5	.001402	.00001402
293.15	.75	.001529	.00001529
293.15	.9998	.0016692	.000016692
293.15	1.2501	.0018398	.000018398
293.15	1.5002	.0020303	.000020303
293.15	1.75	.0022157	.000022157
293.15	2.0007	.0024189	.000024189
293.15	2.2	.0026039	.000026039
293.15	2.3996	.0027922	.000027922
298.15	.2501	.0011781	.000011781
298.15	.5	.0012587	.000012587
298.15	.75	.0013558	.000013558
298.15	.9998	.001466	.00001466
298.15	1.2501	.0016075	.000016075
298.15	1.5002	.0017685	.000017685
298.15	1.75	.0019218	.000019218
298.15	2.0007	.0020914	.000020914
298.15	2.2	.0022492	.000022492
298.15	2.3996	.0024082	.000024082
303.15	.2501	.0010443	.000010443
303.15	.5	.0011163	.000011163
303.15	.75	.0012033	.000012033
303.15	.9998	.0013021	.000013021
303.15	1.2501	.0014236	.000014236
303.15	1.5002	.0015588	.000015588
303.15	1.75	.0016882	.000016882
303.15	2.0007	.001827	.00001827
303.15	2.2	.0019506	.000019506
303.15	2.3996	.0020726	.000020726
308.15	.2501	.0009225	.000009225
308.15	.5	.0009723	.000009723
308.15	.75	.0010366	.000010366
308.15	.9998	.0011129	.000011129
308.15	1.2501	.0012063	.000012063
308.15	1.5002	.0013113	.000013113
308.15	1.75	.0014169	.000014169
308.15	2.0007	.0015304	.000015304
308.15	2.2	.0016293	.000016293
308.15	2.3996	.0017285	.000017285

System: water + N-methyl-N-propylpiperidinium bromide; phases: Liquid
Fixed: Pressure, kPa = 101
Property: Electrical conductivity, S/m (Liquid); method: Direct current cell with electrodes
Temperature, K	Molality, mol/kg of N-methyl-N-propylpiperidinium bromide	Electrical conductivity, S/m	uncertainty
293.15	.2501	1.61	.02
293.15	.5	2.44	.02
293.15	.75	3.08	.02
293.15	.9998	3.57	.02
293.15	1.2501	3.91	.02
293.15	1.5002	4.14	.02
293.15	1.75	4.29	.02
293.15	2.0007	4.38	.02
293.15	2.2	4.41	.02
293.15	2.3996	4.44	.02
298.15	.2501	1.75	.02
298.15	.5	2.64	.02
298.15	.75	3.33	.02
298.15	.9998	3.86	.02
298.15	1.2501	4.23	.02
298.15	1.5002	4.48	.02
298.15	1.75	4.65	.02
298.15	2.0007	4.76	.02
298.15	2.2	4.81	.02
298.15	2.3996	4.85	.02
303.15	.2501	1.9	.02
303.15	.5	2.83	.02
303.15	.75	3.57	.02
303.15	.9998	4.14	.02
303.15	1.2501	4.54	.02
303.15	1.5002	4.82	.02
303.15	1.75	5.04	.02
303.15	2.0007	5.18	.02
303.15	2.2	5.24	.02
303.15	2.3996	5.3	.02
308.15	.2501	2.04	.02
308.15	.5	3.03	.02
308.15	.75	3.82	.02
308.15	.9998	4.43	.02
308.15	1.2501	4.86	.02
308.15	1.5002	5.16	.02
308.15	1.75	5.4	.02
308.15	2.0007	5.57	.02
308.15	2.2	5.65	.02
308.15	2.3996	5.72	.02

System: water + N-butyl-N-methylpiperidinium bromide; phases: Liquid
Fixed: Pressure, kPa = 101
Property: Mass density, kg/m3 (Liquid); method: Vibrating tube method
Temperature, K	Molality, mol/kg of N-butyl-N-methylpiperidinium bromide	Mass density, kg/m3	uncertainty
293.15	.25	1008.15	.05
293.15	.5006	1017.18	.05
293.15	.7499	1025.78	.05
293.15	.9999	1034.01	.05
293.15	1.25	1041.71	.05
293.15	1.5003	1049.03	.05
293.15	1.75	1055.94	.05
293.15	2.0001	1062.38	.05
293.15	2.2001	1067.29	.05
293.15	2.4	1071.91	.05
298.15	.25	1006.6	.05
298.15	.5006	1015.55	.05
298.15	.7499	1024.1	.05
298.15	.9999	1032.29	.05
298.15	1.25	1039.86	.05
298.15	1.5003	1047.06	.05
298.15	1.75	1053.87	.05
298.15	2.0001	1060.17	.05
298.15	2.2001	1064.99	.05
298.15	2.4	1069.52	.05
303.15	.25	1004.71	.05
303.15	.5006	1013.61	.05
303.15	.7499	1022.18	.05
303.15	.9999	1030.35	.05
303.15	1.25	1037.65	.05
303.15	1.5003	1044.94	.05
303.15	1.75	1051.69	.05
303.15	2.0001	1057.79	.05
303.15	2.2001	1062.59	.05
303.15	2.4	1066.98	.05
308.15	.25	1002.93	.05
308.15	.5006	1011.89	.05
308.15	.7499	1020.33	.05
308.15	.9999	1028.69	.05
308.15	1.25	1035.69	.05
308.15	1.5003	1043.08	.05
308.15	1.75	1049.51	.05
308.15	2.0001	1055.41	.05
308.15	2.2001	1060.23	.05
308.15	2.4	1064.28	.05

System: water + N-butyl-N-methylpiperidinium bromide; phases: Liquid
Fixed: Pressure, kPa = 101
Property: Viscosity, Pa*s (Liquid); method: Capillary tube (Ostwald; Ubbelohde) method
Temperature, K	Molality, mol/kg of N-butyl-N-methylpiperidinium bromide	Viscosity, Pa*s	uncertainty
293.15	.25	.0012712	.000012712
293.15	.5006	.0014511	.000014511
293.15	.7499	.0016313	.000016313
293.15	.9999	.0018187	.000018187
293.15	1.25	.0020042	.000020042
293.15	1.5003	.0021986	.000021986
293.15	1.75	.002422	.00002422
293.15	2.0001	.0026632	.000026632
293.15	2.2001	.0028632	.000028632
293.15	2.4	.0030839	.000030839
298.15	.25	.0011144	.000011144
298.15	.5006	.001283	.00001283
298.15	.7499	.0014415	.000014415
298.15	.9999	.0015983	.000015983
298.15	1.25	.0017496	.000017496
298.15	1.5003	.0019065	.000019065
298.15	1.75	.0020874	.000020874
298.15	2.0001	.0022867	.000022867
298.15	2.2001	.0024569	.000024569
298.15	2.4	.0026495	.000026495
303.15	.25	.0009885	.000009885
303.15	.5006	.0011325	.000011325
303.15	.7499	.0012658	.000012658
303.15	.9999	.0013936	.000013936
303.15	1.25	.001528	.00001528
303.15	1.5003	.0016696	.000016696
303.15	1.75	.0018125	.000018125
303.15	2.0001	.0019718	.000019718
303.15	2.2001	.002119	.00002119
303.15	2.4	.0022791	.000022791
308.15	.25	.000882	.00000882
308.15	.5006	.00098	.0000098
308.15	.7499	.0010779	.000010779
308.15	.9999	.0011787	.000011787
308.15	1.25	.0012825	.000012825
308.15	1.5003	.001392	.00001392
308.15	1.75	.0015108	.000015108
308.15	2.0001	.0016393	.000016393
308.15	2.2001	.0017493	.000017493
308.15	2.4	.0018681	.000018681

System: water + N-butyl-N-methylpiperidinium bromide; phases: Liquid
Fixed: Pressure, kPa = 101
Property: Electrical conductivity, S/m (Liquid); method: Direct current cell with electrodes
Temperature, K	Molality, mol/kg of N-butyl-N-methylpiperidinium bromide	Electrical conductivity, S/m	uncertainty
293.15	.25	1.58	.02
293.15	.5006	2.29	.02
293.15	.7499	2.83	.02
293.15	.9999	3.23	.02
293.15	1.25	3.5	.02
293.15	1.5003	3.66	.02
293.15	1.75	3.77	.02
293.15	2.0001	3.83	.02
293.15	2.2001	3.85	.02
293.15	2.4	3.87	.02
298.15	.25	1.64	.02
298.15	.5006	2.44	.02
298.15	.7499	3.04	.02
298.15	.9999	3.49	.02
298.15	1.25	3.78	.02
298.15	1.5003	3.96	.02
298.15	1.75	4.08	.02
298.15	2.0001	4.15	.02
298.15	2.2001	4.17	.02
298.15	2.4	4.2	.02
303.15	.25	1.77	.02
303.15	.5006	2.61	.02
303.15	.7499	3.26	.02
303.15	.9999	3.75	.02
303.15	1.25	4.09	.02
303.15	1.5003	4.32	.02
303.15	1.75	4.48	.02
303.15	2.0001	4.57	.02
303.15	2.2001	4.6	.02
303.15	2.4	4.63	.02
308.15	.25	1.86	.02
308.15	.5006	2.77	.02
308.15	.7499	3.47	.02
308.15	.9999	4.01	.02
308.15	1.25	4.39	.02
308.15	1.5003	4.64	.02
308.15	1.75	4.82	.02
308.15	2.0001	4.92	.02
308.15	2.2001	4.96	.02
308.15	2.4	4.99	.02

System: water + N-ethyl-N-methylpiperidinium bromide + N-methyl-N-propylpiperidinium bromide; phases: Liquid
Fixed: Pressure, kPa = 101
Property: Mass density, kg/m3 (Liquid); method: Vibrating tube method
Temperature, K	Molality, mol/kg of N-ethyl-N-methylpiperidinium bromide	Molality, mol/kg of N-methyl-N-propylpiperidinium bromide	Mass density, kg/m3	uncertainty
293.15	.1664	.3336	1018.68	.05
293.15	.5003	.9998	1053.34	.05
293.15	.8002	1.5995	1078.92	.05
293.15	.2487	.2514	1018.91	.05
293.15	.7502	.7499	1053.87	.05
293.15	1.2004	1.1994	1079.78	.05
293.15	.3334	.1666	1019.1	.05
293.15	1.0001	.4999	1054.41	.05
293.15	1.5996	.8003	1080.65	.05
298.15	.1664	.3336	1017.29	.05
298.15	.5003	.9998	1051.46	.05
298.15	.8002	1.5995	1076.68	.05
298.15	.2487	.2514	1017.51	.05
298.15	.7502	.7499	1052	.05
298.15	1.2004	1.1994	1077.54	.05
298.15	.3334	.1666	1017.7	.05
298.15	1.0001	.4999	1052.53	.05
298.15	1.5996	.8003	1078.4	.05
303.15	.1664	.3336	1015.61	.05
303.15	.5003	.9998	1049.43	.05
303.15	.8002	1.5995	1074.31	.05
303.15	.2487	.2514	1015.89	.05
303.15	.7502	.7499	1049.95	.05
303.15	1.2004	1.1994	1075.16	.05
303.15	.3334	.1666	1016.07	.05
303.15	1.0001	.4999	1050.49	.05
303.15	1.5996	.8003	1076.04	.05
308.15	.1664	.3336	1014.15	.05
308.15	.5003	.9998	1047.46	.05
308.15	.8002	1.5995	1072.03	.05
308.15	.2487	.2514	1014.36	.05
308.15	.7502	.7499	1047.92	.05
308.15	1.2004	1.1994	1072.92	.05
308.15	.3334	.1666	1014.61	.05
308.15	1.0001	.4999	1048.47	.05
308.15	1.5996	.8003	1073.81	.05

System: water + N-ethyl-N-methylpiperidinium bromide + N-methyl-N-propylpiperidinium bromide; phases: Liquid
Fixed: Pressure, kPa = 101
Property: Viscosity, Pa*s (Liquid); method: Capillary tube (Ostwald; Ubbelohde) method
Temperature, K	Molality, mol/kg of N-ethyl-N-methylpiperidinium bromide	Molality, mol/kg of N-methyl-N-propylpiperidinium bromide	Viscosity, Pa*s	uncertainty
293.15	.1664	.3336	.0015746	.000015746
293.15	.5003	.9998	.0019793	.000019793
293.15	.8002	1.5995	.0026762	.000026762
293.15	.2487	.2514	.001529	.00001529
293.15	.7502	.7499	.0019419	.000019419
293.15	1.2004	1.1994	.0026402	.000026402
293.15	.3334	.1666	.0014922	.000014922
293.15	1.0001	.4999	.0019128	.000019128
293.15	1.5996	.8003	.0025792	.000025792
298.15	.1664	.3336	.0013765	.000013765
298.15	.5003	.9998	.0017232	.000017232
298.15	.8002	1.5995	.0023185	.000023185
298.15	.2487	.2514	.0013425	.000013425
298.15	.7502	.7499	.0016994	.000016994
298.15	1.2004	1.1994	.002289	.00002289
298.15	.3334	.1666	.0013121	.000013121
298.15	1.0001	.4999	.0016685	.000016685
298.15	1.5996	.8003	.0022372	.000022372
303.15	.1664	.3336	.0012011	.000012011
303.15	.5003	.9998	.0015041	.000015041
303.15	.8002	1.5995	.0020269	.000020269
303.15	.2487	.2514	.0011734	.000011734
303.15	.7502	.7499	.0014721	.000014721
303.15	1.2004	1.1994	.0019989	.000019989
303.15	.3334	.1666	.0011448	.000011448
303.15	1.0001	.4999	.0014439	.000014439
303.15	1.5996	.8003	.0019566	.000019566
308.15	.1664	.3336	.0010289	.000010289
308.15	.5003	.9998	.0012914	.000012914
308.15	.8002	1.5995	.0017622	.000017622
308.15	.2487	.2514	.001009	.00001009
308.15	.7502	.7499	.0012638	.000012638
308.15	1.2004	1.1994	.0017291	.000017291
308.15	.3334	.1666	.0009854	.000009854
308.15	1.0001	.4999	.0012358	.000012358
308.15	1.5996	.8003	.0016836	.000016836

System: water + N-ethyl-N-methylpiperidinium bromide + N-methyl-N-propylpiperidinium bromide; phases: Liquid
Fixed: Pressure, kPa = 101
Property: Electrical conductivity, S/m (Liquid); method: Direct current cell with electrodes
Temperature, K	Molality, mol/kg of N-ethyl-N-methylpiperidinium bromide	Molality, mol/kg of N-methyl-N-propylpiperidinium bromide	Electrical conductivity, S/m	uncertainty
293.15	.1664	.3336	2.6	.02
293.15	.5003	.9998	4.36	.02
293.15	.8002	1.5995	4.68	.02
293.15	.2487	.2514	2.63	.02
293.15	.7502	.7499	4.44	.02
293.15	1.2004	1.1994	4.8	.02
293.15	.3334	.1666	2.68	.02
293.15	1.0001	.4999	4.57	.02
293.15	1.5996	.8003	4.98	.02
298.15	.1664	.3336	2.76	.02
298.15	.5003	.9998	4.68	.02
298.15	.8002	1.5995	5.1	.02
298.15	.2487	.2514	2.8	.02
298.15	.7502	.7499	4.78	.02
298.15	1.2004	1.1994	5.2	.02
298.15	.3334	.1666	2.84	.02
298.15	1.0001	.4999	4.89	.02
298.15	1.5996	.8003	5.36	.02
303.15	.1664	.3336	2.95	.02
303.15	.5003	.9998	5.05	.02
303.15	.8002	1.5995	5.51	.02
303.15	.2487	.2514	2.98	.02
303.15	.7502	.7499	5.14	.02
303.15	1.2004	1.1994	5.66	.02
303.15	.3334	.1666	3.02	.02
303.15	1.0001	.4999	5.28	.02
303.15	1.5996	.8003	5.83	.02
308.15	.1664	.3336	3.12	.02
308.15	.5003	.9998	5.39	.02
308.15	.8002	1.5995	5.93	.02
308.15	.2487	.2514	3.15	.02
308.15	.7502	.7499	5.49	.02
308.15	1.2004	1.1994	6.08	.02
308.15	.3334	.1666	3.19	.02
308.15	1.0001	.4999	5.62	.02
308.15	1.5996	.8003	6.24	.02

System: water + N-ethyl-N-methylpiperidinium bromide + N-butyl-N-methylpiperidinium bromide; phases: Liquid
Fixed: Pressure, kPa = 101
Property: Mass density, kg/m3 (Liquid); method: Vibrating tube method
Temperature, K	Molality, mol/kg of N-ethyl-N-methylpiperidinium bromide	Molality, mol/kg of N-butyl-N-methylpiperidinium bromide	Mass density, kg/m3	uncertainty
293.15	.1669	.3335	1017.94	.05
293.15	.5	1.0002	1051.11	.05
293.15	.7995	1.6005	1075.36	.05
293.15	.25	.2503	1018.33	.05
293.15	.7504	.7497	1052.21	.05
293.15	1.2004	1.1996	1077.08	.05
293.15	.3335	.1667	1018.73	.05
293.15	.9999	.5001	1053.3	.05
293.15	1.5998	.8002	1078.87	.05
298.15	.1669	.3335	1016.34	.05
298.15	.5	1.0002	1049.16	.05
298.15	.7995	1.6005	1073.01	.05
298.15	.25	.2503	1016.9	.05
298.15	.7504	.7497	1050.28	.05
298.15	1.2004	1.1996	1074.76	.05
298.15	.3335	.1667	1017.31	.05
298.15	.9999	.5001	1051.39	.05
298.15	1.5998	.8002	1076.58	.05
303.15	.1669	.3335	1014.66	.05
303.15	.5	1.0002	1047.08	.05
303.15	.7995	1.6005	1070.53	.05
303.15	.25	.2503	1015.21	.05
303.15	.7504	.7497	1048.18	.05
303.15	1.2004	1.1996	1072.31	.05
303.15	.3335	.1667	1015.66	.05
303.15	.9999	.5001	1049.3	.05
303.15	1.5998	.8002	1074.21	.05
308.15	.1669	.3335	1013.06	.05
308.15	.5	1.0002	1045.03	.05
308.15	.7995	1.6005	1068.07	.05
308.15	.25	.2503	1013.65	.05
308.15	.7504	.7497	1046.18	.05
308.15	1.2004	1.1996	1070.01	.05
308.15	.3335	.1667	1014.22	.05
308.15	.9999	.5001	1047.31	.05
308.15	1.5998	.8002	1071.84	.05

System: water + N-ethyl-N-methylpiperidinium bromide + N-butyl-N-methylpiperidinium bromide; phases: Liquid
Fixed: Pressure, kPa = 101
Property: Viscosity, Pa*s (Liquid); method: Capillary tube (Ostwald; Ubbelohde) method
Temperature, K	Molality, mol/kg of N-ethyl-N-methylpiperidinium bromide	Molality, mol/kg of N-butyl-N-methylpiperidinium bromide	Viscosity, Pa*s	uncertainty
293.15	.1669	.3335	.0014402	.000014402
293.15	.5	1.0002	.0020773	.000020773
293.15	.7995	1.6005	.0028827	.000028827
293.15	.25	.2503	.0014023	.000014023
293.15	.7504	.7497	.0020209	.000020209
293.15	1.2004	1.1996	.0028047	.000028047
293.15	.3335	.1667	.0013652	.000013652
293.15	.9999	.5001	.0019804	.000019804
293.15	1.5998	.8002	.0026947	.000026947
298.15	.1669	.3335	.0012733	.000012733
298.15	.5	1.0002	.0018151	.000018151
298.15	.7995	1.6005	.0025013	.000025013
298.15	.25	.2503	.0012456	.000012456
298.15	.7504	.7497	.0017774	.000017774
298.15	1.2004	1.1996	.0024141	.000024141
298.15	.3335	.1667	.0012083	.000012083
298.15	.9999	.5001	.0017296	.000017296
298.15	1.5998	.8002	.0023343	.000023343
303.15	.1669	.3335	.0011376	.000011376
303.15	.5	1.0002	.0015803	.000015803
303.15	.7995	1.6005	.0021636	.000021636
303.15	.25	.2503	.0011094	.000011094
303.15	.7504	.7497	.0015333	.000015333
303.15	1.2004	1.1996	.0020921	.000020921
303.15	.3335	.1667	.0010676	.000010676
303.15	.9999	.5001	.0014776	.000014776
303.15	1.5998	.8002	.0020231	.000020231
308.15	.1669	.3335	.0010007	.000010007
308.15	.5	1.0002	.0013516	.000013516
308.15	.7995	1.6005	.0018448	.000018448
308.15	.25	.2503	.0009664	.000009664
308.15	.7504	.7497	.0013059	.000013059
308.15	1.2004	1.1996	.0017843	.000017843
308.15	.3335	.1667	.0009315	.000009315
308.15	.9999	.5001	.0012599	.000012599
308.15	1.5998	.8002	.0017355	.000017355

System: water + N-ethyl-N-methylpiperidinium bromide + N-butyl-N-methylpiperidinium bromide; phases: Liquid
Fixed: Pressure, kPa = 101
Property: Electrical conductivity, S/m (Liquid); method: Direct current cell with electrodes
Temperature, K	Molality, mol/kg of N-ethyl-N-methylpiperidinium bromide	Molality, mol/kg of N-butyl-N-methylpiperidinium bromide	Electrical conductivity, S/m	uncertainty
293.15	.1669	.3335	2.46	.02
293.15	.5	1.0002	4.01	.02
293.15	.7995	1.6005	4.23	.02
293.15	.25	.2503	2.54	.02
293.15	.7504	.7497	4.2	.02
293.15	1.2004	1.1996	4.48	.02
293.15	.3335	.1667	2.61	.02
293.15	.9999	.5001	4.35	.02
293.15	1.5998	.8002	4.69	.02
298.15	.1669	.3335	2.61	.02
298.15	.5	1.0002	4.32	.02
298.15	.7995	1.6005	4.64	.02
298.15	.25	.2503	2.71	.02
298.15	.7504	.7497	4.56	.02
298.15	1.2004	1.1996	4.92	.02
298.15	.3335	.1667	2.8	.02
298.15	.9999	.5001	4.74	.02
298.15	1.5998	.8002	5.16	.02
303.15	.1669	.3335	2.79	.02
303.15	.5	1.0002	4.67	.02
303.15	.7995	1.6005	5.05	.02
303.15	.25	.2503	2.87	.02
303.15	.7504	.7497	4.92	.02
303.15	1.2004	1.1996	5.36	.02
303.15	.3335	.1667	2.97	.02
303.15	.9999	.5001	5.09	.02
303.15	1.5998	.8002	5.58	.02
308.15	.1669	.3335	2.95	.02
308.15	.5	1.0002	4.99	.02
308.15	.7995	1.6005	5.46	.02
308.15	.25	.2503	3.04	.02
308.15	.7504	.7497	5.28	.02
308.15	1.2004	1.1996	5.8	.02
308.15	.3335	.1667	3.15	.02
308.15	.9999	.5001	5.47	.02
308.15	1.5998	.8002	6.03	.02

System: water + N-methyl-N-propylpiperidinium bromide + N-butyl-N-methylpiperidinium bromide; phases: Liquid
Fixed: Pressure, kPa = 101
Property: Mass density, kg/m3 (Liquid); method: Vibrating tube method
Temperature, K	Molality, mol/kg of N-methyl-N-propylpiperidinium bromide	Molality, mol/kg of N-butyl-N-methylpiperidinium bromide	Mass density, kg/m3	uncertainty
293.15	.1668	.3336	1017.56	.05
293.15	.5	1.0002	1050.08	.05
293.15	.7998	1.6001	1073.65	.05
293.15	.2503	.25	1017.75	.05
293.15	.7501	.7501	1050.63	.05
293.15	1.2005	1.1993	1074.55	.05
293.15	.3337	.1666	1017.94	.05
293.15	1.0006	.4996	1051.18	.05
293.15	1.5991	.8006	1075.43	.05
298.15	.1668	.3336	1016.13	.05
298.15	.5	1.0002	1048.14	.05
298.15	.7998	1.6001	1071.31	.05
298.15	.2503	.25	1016.33	.05
298.15	.7501	.7501	1048.71	.05
298.15	1.2005	1.1993	1072.24	.05
298.15	.3337	.1666	1016.54	.05
298.15	1.0006	.4996	1049.28	.05
298.15	1.5991	.8006	1073.14	.05
303.15	.1668	.3336	1014.76	.05
303.15	.5	1.0002	1045.96	.05
303.15	.7998	1.6001	1068.82	.05
303.15	.2503	.25	1014.97	.05
303.15	.7501	.7501	1046.61	.05
303.15	1.2005	1.1993	1069.78	.05
303.15	.3337	.1666	1015.14	.05
303.15	1.0006	.4996	1047.2	.05
303.15	1.5991	.8006	1070.71	.05
308.15	.1668	.3336	1013.34	.05
308.15	.5	1.0002	1043.83	.05
308.15	.7998	1.6001	1066.47	.05
308.15	.2503	.25	1013.53	.05
308.15	.7501	.7501	1044.48	.05
308.15	1.2005	1.1993	1067.46	.05
308.15	.3337	.1666	1013.72	.05
308.15	1.0006	.4996	1044.99	.05
308.15	1.5991	.8006	1068.35	.05

System: water + N-methyl-N-propylpiperidinium bromide + N-butyl-N-methylpiperidinium bromide; phases: Liquid
Fixed: Pressure, kPa = 101
Property: Viscosity, Pa*s (Liquid); method: Capillary tube (Ostwald; Ubbelohde) method
Temperature, K	Molality, mol/kg of N-methyl-N-propylpiperidinium bromide	Molality, mol/kg of N-butyl-N-methylpiperidinium bromide	Viscosity, Pa*s	uncertainty
293.15	.1668	.3336	.0015438	.000015438
293.15	.5	1.0002	.0021219	.000021219
293.15	.7998	1.6001	.0029626	.000029626
293.15	.2503	.25	.0015021	.000015021
293.15	.7501	.7501	.0020866	.000020866
293.15	1.2005	1.1993	.0029162	.000029162
293.15	.3337	.1666	.001457	.00001457
293.15	1.0006	.4996	.0020581	.000020581
293.15	1.5991	.8006	.0028717	.000028717
298.15	.1668	.3336	.0013373	.000013373
298.15	.5	1.0002	.0018575	.000018575
298.15	.7998	1.6001	.0025648	.000025648
298.15	.2503	.25	.0013051	.000013051
298.15	.7501	.7501	.0018228	.000018228
298.15	1.2005	1.1993	.0025141	.000025141
298.15	.3337	.1666	.0012664	.000012664
298.15	1.0006	.4996	.0017955	.000017955
298.15	1.5991	.8006	.0024812	.000024812
303.15	.1668	.3336	.001165	.00001165
303.15	.5	1.0002	.0016152	.000016152
303.15	.7998	1.6001	.0022133	.000022133
303.15	.2503	.25	.0011354	.000011354
303.15	.7501	.7501	.0015822	.000015822
303.15	1.2005	1.1993	.0021652	.000021652
303.15	.3337	.1666	.0011071	.000011071
303.15	1.0006	.4996	.0015548	.000015548
303.15	1.5991	.8006	.0021265	.000021265
308.15	.1668	.3336	.0010086	.000010086
308.15	.5	1.0002	.0013816	.000013816
308.15	.7998	1.6001	.0018945	.000018945
308.15	.2503	.25	.0009758	.000009758
308.15	.7501	.7501	.0013548	.000013548
308.15	1.2005	1.1993	.0018451	.000018451
308.15	.3337	.1666	.0009485	.000009485
308.15	1.0006	.4996	.0013319	.000013319
308.15	1.5991	.8006	.0018112	.000018112

System: water + N-methyl-N-propylpiperidinium bromide + N-butyl-N-methylpiperidinium bromide; phases: Liquid
Fixed: Pressure, kPa = 101
Property: Electrical conductivity, S/m (Liquid); method: Direct current cell with electrodes
Temperature, K	Molality, mol/kg of N-methyl-N-propylpiperidinium bromide	Molality, mol/kg of N-butyl-N-methylpiperidinium bromide	Electrical conductivity, S/m	uncertainty
293.15	.1668	.3336	2.38	.02
293.15	.5	1.0002	3.79	.02
293.15	.7998	1.6001	3.98	.02
293.15	.2503	.25	2.39	.02
293.15	.7501	.7501	3.87	.02
293.15	1.2005	1.1993	4.08	.02
293.15	.3337	.1666	2.43	.02
293.15	1.0006	.4996	3.98	.02
293.15	1.5991	.8006	4.18	.02
298.15	.1668	.3336	2.55	.02
298.15	.5	1.0002	4.14	.02
298.15	.7998	1.6001	4.4	.02
298.15	.2503	.25	2.56	.02
298.15	.7501	.7501	4.21	.02
298.15	1.2005	1.1993	4.52	.02
298.15	.3337	.1666	2.6	.02
298.15	1.0006	.4996	4.31	.02
298.15	1.5991	.8006	4.61	.02
303.15	.1668	.3336	2.73	.02
303.15	.5	1.0002	4.5	.02
303.15	.7998	1.6001	4.84	.02
303.15	.2503	.25	2.74	.02
303.15	.7501	.7501	4.58	.02
303.15	1.2005	1.1993	4.95	.02
303.15	.3337	.1666	2.79	.02
303.15	1.0006	.4996	4.69	.02
303.15	1.5991	.8006	5.05	.02
308.15	.1668	.3336	2.91	.02
308.15	.5	1.0002	4.85	.02
308.15	.7998	1.6001	5.27	.02
308.15	.2503	.25	2.91	.02
308.15	.7501	.7501	4.93	.02
308.15	1.2005	1.1993	5.39	.02
308.15	.3337	.1666	2.97	.02
308.15	1.0006	.4996	5.04	.02
308.15	1.5991	.8006	5.48	.02
