Measured thermophysical data. Liquid liquid equilibria of ionic liquid 1-butyl-3-methylimidazolium tetrafluoroborate and sodium citrate/tartrate/acetate aqueous two-phase systems at 298.15 K: Experiment and correlation
Source: Fluid Phase Equilib., 2010, 10.1016/j.fluid.2010.03.044
Compound 1: 1-butyl-3-methylimidazolium tetrafluoroborate, C8H15BF4N2, purity 99%
Compound 2: 3-carboxy-3-hydroxy-pentan-1,5-dioic acid trisodium salt, C6H5Na3O7, purity 99%
Compound 3: sodium tartrate, C4H4Na2O6, purity 99%
Compound 4: sodium ethanoate, C2H3NaO2, purity 99%
Compound 5: water, H2O

System: 3-carboxy-3-hydroxy-pentan-1,5-dioic acid trisodium salt + water + 1-butyl-3-methylimidazolium tetrafluoroborate; phases: Liquid mixture 1, Liquid mixture 2
Fixed: Temperature, K = 298.15
Fixed: Pressure, kPa = 101
Property: Mass fraction of 3-carboxy-3-hydroxy-pentan-1,5-dioic acid trisodium salt (Liquid mixture 1); method: Titration method
Mass fraction of 1-butyl-3-methylimidazolium tetrafluoroborate	Mass fraction of 3-carboxy-3-hydroxy-pentan-1,5-dioic acid trisodium salt	uncertainty
.792	.0026	.001
.7065	.0044	.001
.6621	.0049	.001
.6298	.0069	.001
.5961	.008	.001
.523	.0126	.001
.4792	.0151	.001
.4494	.0185	.001
.4008	.022	.001
.376	.024	.001
.3418	.0266	.001
.3172	.0294	.001
.28	.0349	.001
.2588	.0377	.001
.2294	.0452	.001
.2094	.0508	.001
.1745	.0661	.001
.1557	.0743	.001
.1405	.0857	.001
.1277	.0963	.001
.1069	.1228	.001
.0865	.1409	.001
.0712	.1674	.001
.0677	.1742	.001
.0647	.1805	.001
.056	.2007	.001

System: 3-carboxy-3-hydroxy-pentan-1,5-dioic acid trisodium salt + water + 1-butyl-3-methylimidazolium tetrafluoroborate; phases: Liquid mixture 1, Liquid mixture 2
Fixed: Temperature, K = 298.15
Fixed: Pressure, kPa = 101
Property: Mass fraction of 3-carboxy-3-hydroxy-pentan-1,5-dioic acid trisodium salt (Liquid mixture 1); method: Density calibration data
Property: Mass fraction of 3-carboxy-3-hydroxy-pentan-1,5-dioic acid trisodium salt (Liquid mixture 2); method: Density calibration data
Property: Mass fraction of 1-butyl-3-methylimidazolium tetrafluoroborate (Liquid mixture 2); method: Density calibration data
Mass fraction of 1-butyl-3-methylimidazolium tetrafluoroborate	Mass fraction of 3-carboxy-3-hydroxy-pentan-1,5-dioic acid trisodium salt	uncertainty	Mass fraction of 3-carboxy-3-hydroxy-pentan-1,5-dioic acid trisodium salt	uncertainty	Mass fraction of 1-butyl-3-methylimidazolium tetrafluoroborate	uncertainty
.5873	.0084	.001	.195	.001	.0622	.001
.4954	.0132	.001	.1744	.001	.0676	.001
.5068	.0125	.001	.1821	.001	.0684	.001
.3741	.0234	.001	.1523	.001	.0765	.001

System: sodium tartrate + water + 1-butyl-3-methylimidazolium tetrafluoroborate; phases: Liquid mixture 1, Liquid mixture 2
Fixed: Temperature, K = 298.15
Fixed: Pressure, kPa = 101
Property: Mass fraction of sodium tartrate (Liquid mixture 1); method: Titration method
Mass fraction of 1-butyl-3-methylimidazolium tetrafluoroborate	Mass fraction of sodium tartrate	uncertainty
.7	.0053	.001
.6576	.0065	.001
.6453	.0069	.001
.6279	.0075	.001
.5723	.0118	.001
.5144	.0153	.001
.4787	.0171	.001
.458	.0188	.001
.4397	.0199	.001
.4018	.0232	.001
.386	.0252	.001
.365	.0267	.001
.3452	.0286	.001
.3114	.0329	.001
.2848	.0362	.001
.2637	.0417	.001
.2295	.0501	.001
.2014	.0583	.001
.1845	.0656	.001
.1535	.0832	.001
.1424	.0904	.001
.1317	.099	.001
.1259	.1053	.001
.1189	.1105	.001
.1061	.124	.001
.0968	.1384	.001
.0901	.1451	.001

System: sodium tartrate + water + 1-butyl-3-methylimidazolium tetrafluoroborate; phases: Liquid mixture 1, Liquid mixture 2
Fixed: Temperature, K = 298.15
Fixed: Pressure, kPa = 101
Property: Mass fraction of sodium tartrate (Liquid mixture 1); method: Density calibration data
Property: Mass fraction of sodium tartrate (Liquid mixture 2); method: Density calibration data
Property: Mass fraction of 1-butyl-3-methylimidazolium tetrafluoroborate (Liquid mixture 2); method: Density calibration data
Mass fraction of 1-butyl-3-methylimidazolium tetrafluoroborate	Mass fraction of sodium tartrate	uncertainty	Mass fraction of sodium tartrate	uncertainty	Mass fraction of 1-butyl-3-methylimidazolium tetrafluoroborate	uncertainty
.5688	.0106	.001	.1398	.001	.0943	.001
.5932	.0094	.001	.1453	.001	.0913	.001
.791	.0033	.001	.1861	.001	.0782	.001
.8342	.0025	.001	.1914	.001	.0775	.001

System: sodium ethanoate + water + 1-butyl-3-methylimidazolium tetrafluoroborate; phases: Liquid mixture 1, Liquid mixture 2
Fixed: Temperature, K = 298.15
Fixed: Pressure, kPa = 101
Property: Mass fraction of sodium ethanoate (Liquid mixture 1); method: Titration method
Mass fraction of 1-butyl-3-methylimidazolium tetrafluoroborate	Mass fraction of sodium ethanoate	uncertainty
.7874	.0085	.001
.7287	.0099	.001
.7035	.0111	.001
.6583	.0127	.001
.6212	.0137	.001
.6061	.0145	.001
.5844	.0149	.001
.5671	.0171	.001
.5185	.0201	.001
.4632	.0232	.001
.4285	.0272	.001
.3903	.0305	.001
.3748	.0321	.001
.3323	.0368	.001
.282	.0447	.001
.2449	.0557	.001
.2195	.0636	.001
.1817	.0783	.001
.173	.0824	.001
.1648	.0883	.001
.1589	.0934	.001
.14	.1153	.001
.1254	.1444	.001

System: sodium ethanoate + water + 1-butyl-3-methylimidazolium tetrafluoroborate; phases: Liquid mixture 2, Liquid mixture 1
Fixed: Pressure, kPa = 101
Fixed: Temperature, K = 298.15
Property: Mass fraction of 1-butyl-3-methylimidazolium tetrafluoroborate (Liquid mixture 2); method: Density calibration data
Property: Mass fraction of 1-butyl-3-methylimidazolium tetrafluoroborate (Liquid mixture 1); method: Density calibration data
Property: Mass fraction of sodium ethanoate (Liquid mixture 1); method: Density calibration data
Mass fraction of sodium ethanoate	Mass fraction of 1-butyl-3-methylimidazolium tetrafluoroborate	uncertainty	Mass fraction of 1-butyl-3-methylimidazolium tetrafluoroborate	uncertainty	Mass fraction of sodium ethanoate	uncertainty
.3116	.0402	.001	.7627	.001	.0091	.001
.2789	.0513	.001	.6318	.001	.0135	.001
.3014	.0437	.001	.7103	.001	.0106	.001
.2727	.0534	.001	.6089	.001	.0145	.001
