Measured thermophysical data. Solid-liquid equilibrium of sulbactam in pure solvents and binary solvent mixtures
Source: Fluid Phase Equilib., 2014, 10.1016/j.fluid.2014.09.008
Compound 1: sulbactam, C8H11NO5S, purity 99.5%
Compound 2: acetone, C3H6O, purity 99.5%
Compound 3: methanol, CH4O, purity 99.5%
Compound 4: ethanol, C2H6O, purity 99.7%
Compound 5: 1-propanol, C3H8O, purity 99.8%
Compound 6: 2-propanol, C3H8O, purity 99.7%
Compound 7: 1-butanol, C4H10O, purity 99.5%
Compound 8: water, H2O, purity 99.8%

System: water + sulbactam; phases: Liquid, Crystal
Fixed: Pressure, kPa = 100
Property: Mole fraction of sulbactam (Liquid); method: Gravimetric
Temperature, K	Mole fraction of sulbactam	uncertainty
278.85	.002375	.0000475
283.75	.002814	.00005628
288.6	.003312	.00006624
293.55	.003913	.00007826
298.4	.004665	.0000933
303.25	.005623	.00011246
308.05	.006871	.00013742

System: acetone + sulbactam; phases: Liquid, Crystal
Fixed: Pressure, kPa = 100
Property: Mole fraction of sulbactam (Liquid); method: Gravimetric
Temperature, K	Mole fraction of sulbactam	uncertainty
278.05	.09392	.0018784
283.55	.0972	.001944
288.05	.1012	.002024
293.15	.1061	.002122
298.25	.1092	.002184
303.15	.1131	.002262
308.15	.1181	.002362

System: methanol + sulbactam; phases: Liquid, Crystal
Fixed: Pressure, kPa = 100
Property: Mole fraction of sulbactam (Liquid); method: Gravimetric
Temperature, K	Mole fraction of sulbactam	uncertainty
278.85	.08348	.0016696
283.75	.09343	.0018686
288.6	.1034	.002068
293.55	.1139	.002278
298.4	.1277	.002554
303.25	.1413	.002826
308.05	.1588	.003176

System: ethanol + sulbactam; phases: Liquid, Crystal
Fixed: Pressure, kPa = 100
Property: Mole fraction of sulbactam (Liquid); method: Gravimetric
Temperature, K	Mole fraction of sulbactam	uncertainty
278.15	.03927	.0007854
283.15	.04609	.0009218
288.1	.05342	.0010684
293.15	.06239	.0012478
298.45	.07679	.0015358
303.15	.08635	.001727
307.95	.1028	.002056

System: 1-propanol + sulbactam; phases: Liquid, Crystal
Fixed: Pressure, kPa = 100
Property: Mole fraction of sulbactam (Liquid); method: Gravimetric
Temperature, K	Mole fraction of sulbactam	uncertainty
278.05	.0218	.000436
283.05	.0255	.00051
287.95	.0303	.000606
293.15	.03638	.0007276
297.95	.04342	.0008684
303.05	.05199	.0010398
308.05	.06628	.0013256

System: 2-propanol + sulbactam; phases: Liquid, Crystal
Fixed: Pressure, kPa = 100
Property: Mole fraction of sulbactam (Liquid); method: Gravimetric
Temperature, K	Mole fraction of sulbactam	uncertainty
278.05	.02261	.0004522
283.05	.02784	.0005568
287.95	.03452	.0006904
293.05	.04323	.0008646
298.75	.05375	.001075
302.95	.06664	.0013328
307.75	.07692	.0015384

System: 1-butanol + sulbactam; phases: Liquid, Crystal
Fixed: Pressure, kPa = 100
Property: Mole fraction of sulbactam (Liquid); method: Gravimetric
Temperature, K	Mole fraction of sulbactam	uncertainty
278.05	.01445	.000289
282.55	.01695	.000339
288.05	.02009	.0004018
293.25	.02431	.0004862
298.05	.02872	.0005744
302.95	.03438	.0006876
308.45	.04237	.0008474

System: methanol + water + sulbactam; phases: Liquid, Crystal
Fixed: Pressure, kPa = 100
Property: Mole fraction of sulbactam (Liquid); method: Gravimetric
Temperature, K	Solvent: Mole fraction of methanol	Mole fraction of sulbactam	uncertainty
278.85	0	.002375	.0000475
278.85	.101	.00287	.0000574
278.85	.213	.006852	.00013704
278.85	.302	.01128	.0002256
278.85	.403	.02232	.0004464
278.85	.6	.05376	.0010752
278.85	.801	.07004	.0014008
278.85	1	.08348	.0016696
283.75	0	.002814	.00005628
283.75	.101	.00405	.000081
283.75	.213	.009762	.00019524
283.75	.302	.01595	.000319
283.75	.403	.02906	.0005812
283.75	.6	.06236	.0012472
283.75	.801	.0795	.00159
283.75	1	.09343	.0018686
288.6	0	.003312	.00006624
288.6	.101	.00586	.0001172
288.6	.213	.01345	.000269
288.6	.302	.02233	.0004466
288.6	.403	.03842	.0007684
288.6	.6	.07313	.0014626
288.6	.801	.09042	.0018084
288.6	1	.1034	.002068
293.55	0	.003913	.00007826
293.55	.101	.0078	.000156
293.55	.213	.01898	.0003796
293.55	.302	.03075	.000615
293.55	.403	.0502	.001004
293.55	.6	.08536	.0017072
293.55	.801	.1019	.002038
293.55	1	.1139	.002278
298.4	0	.004665	.0000933
298.4	.101	.01107	.0002214
298.4	.213	.02635	.000527
298.4	.302	.04247	.0008494
298.4	.403	.06459	.0012918
298.4	.6	.099	.00198
298.4	.801	.1139	.002278
298.4	1	.1277	.002554
303.25	0	.005623	.00011246
303.25	.101	.01548	.0003096
303.25	.213	.03641	.0007282
303.25	.302	.05768	.0011536
303.25	.403	.08283	.0016566
303.25	.6	.1141	.002282
303.25	.801	.1269	.002538
303.25	1	.1413	.002826
308.05	0	.006871	.00013742
308.05	.101	.02079	.0004158
308.05	.213	.04967	.0009934
308.05	.302	.07743	.0015486
308.05	.403	.1049	.002098
308.05	.6	.1319	.002638
308.05	.801	.1409	.002818
308.05	1	.1588	.003176
