Measured thermophysical data. Determination and correlation of solid-liquid phase equilibrium and phase diagram for multicomponent system of mixed dibasic acids. (I) Ternary system of adipic acid + glutaric acid + ethanol system
Source: Fluid Phase Equilib., 2016, 10.1016/j.fluid.2015.09.036
Compound 1: glutaric acid, C5H8O4, purity 99.7%
Compound 2: adipic acid, C6H10O4, purity 99.8%
Compound 3: ethanol, C2H6O, purity 99.7%

System: ethanol + glutaric acid + adipic acid; phases: Liquid, Crystal
Fixed: Pressure, kPa = 101.3
Property: Mass fraction of adipic acid (Liquid); method: Chromatography
Temperature, K	Mass fraction of glutaric acid	Mass fraction of adipic acid	uncertainty
283.15	.1926	0	0
283.15	.1865	.009194	.00018388
283.15	.1816	.01819	.0003638
283.15	.1781	.02808	.0005616
283.15	.1751	.03677	.0007354
283.15	.1719	.04506	.0009012
283.15	.1673	.05183	.0010366
303.15	.4065	0	0
303.15	.3987	.01634	.0003268
303.15	.3922	.02722	.0005444
303.15	.3841	.04198	.0008396
303.15	.3756	.0593	.001186
313.15	.5552	0	0
313.15	.5497	.01513	.0003026
313.15	.5401	.02828	.0005656
313.15	.5338	.0407	.000814
313.15	.5244	.05238	.0010476
313.15	.5174	.06187	.0012374
313.15	.5142	.07171	.0014342
313.15	.5093	.07672	.0015344

System: ethanol + glutaric acid + adipic acid; phases: Liquid, Crystal
Fixed: Pressure, kPa = 101.3
Property: Mass fraction of adipic acid (Liquid); method: Chromatography
Temperature, K	Mass fraction of glutaric acid	Mass fraction of adipic acid	uncertainty
283.15	.1673	.05183	.0010366
283.15	.1563	.05184	.0010368
283.15	.1356	.05229	.0010458
283.15	.1142	.05466	.0010932
283.15	.08507	.05759	.0011518
283.15	.0572	.06157	.0012314
283.15	.0307	.06507	.0013014
283.15	0	.06948	.0013896
303.15	.3756	.0593	.001186
303.15	.3088	.06642	.0013284
303.15	.2588	.07367	.0014734
303.15	.2119	.08653	.0017306
303.15	.1735	.09617	.0019234
303.15	.1269	.107	.00214
303.15	.0741	.1215	.00243
303.15	0	.1384	.002768
313.15	.5093	.07672	.0015344
313.15	.4986	.0773	.001546
313.15	.4658	.08133	.0016266
313.15	.4209	.08598	.0017196
313.15	.3799	.09527	.0019054
313.15	.3261	.1066	.002132
313.15	.2461	.1219	.002438
313.15	.1512	.1468	.002936
313.15	0	.1853	.003706
