Measured thermophysical data. Solubilities of 5,10,15,20-tetrakis(4-chlorophenyl) porphyrin and 5,10,15,20-tetrakis(4- chlorophenyl) porphyrin manganese(III) chloride in binary ethanol + water solvent mixtures
Source: Fluid Phase Equilib., 2015, 10.1016/j.fluid.2015.01.008
Compound 1: ethanol, C2H6O
Compound 2: water, H2O
Compound 3: 21H,23H-Porphine, 5,10,15,20-tetrakis(4-chlorophenyl)-, C44H26Cl4N4
Compound 4: 5,10,15,20-tetrakis(4-chlorophenyl) porphyrin manganese(III) chloride, C44H24Cl5MnN4

System: ethanol + water + 21H,23H-Porphine, 5,10,15,20-tetrakis(4-chlorophenyl)-; phases: Liquid, Crystal
Fixed: Pressure, kPa = 100
Property: Mole fraction of 21H,23H-Porphine, 5,10,15,20-tetrakis(4-chlorophenyl)- (Liquid); method: UV-vis spectrophotometer
Temperature, K	Solvent: Mole fraction of ethanol	Mole fraction of 21H,23H-Porphine, 5,10,15,20-tetrakis(4-chlorophenyl)-	uncertainty
293.2	1	.0000012738	.05
303.2	1	.0000016254	.05
313.2	1	.000001926	.05
323.2	1	.0000022509	.05
333.2	1	.0000026259	.05
293.2	.9504	.0000010704	.05
303.2	.9504	.0000013021	.05
313.2	.9504	.0000016334	.05
323.2	.9504	.0000019579	.05
333.2	.9504	.0000022439	.05
293.2	.9038	.0000008529	.05
303.2	.9038	.000001108	.05
313.2	.9038	.0000013987	.05
323.2	.9038	.0000016048	.05
333.2	.9038	.0000018944	.05
293.2	.8597	.0000006769	.05
303.2	.8597	.0000008808	.05
313.2	.8597	.0000010845	.05
323.2	.8597	.0000012316	.05
333.2	.8597	.0000014591	.05
293.2	.8182	.0000005248	.05
303.2	.8182	.0000006889	.05
313.2	.8182	.0000008118	.05
323.2	.8182	.0000009541	.05
333.2	.8182	.0000011218	.05
293.2	.7787	.0000004198	.05
303.2	.7787	.0000005214	.05
313.2	.7787	.0000005731	.05
323.2	.7787	.0000006732	.05
333.2	.7787	.000000821	.05

System: ethanol + water + 5,10,15,20-tetrakis(4-chlorophenyl) porphyrin manganese(III) chloride; phases: Liquid, Crystal
Fixed: Pressure, kPa = 100
Property: Mole fraction of 5,10,15,20-tetrakis(4-chlorophenyl) porphyrin manganese(III) chloride (Liquid); method: UV-vis spectrophotometer
Temperature, K	Solvent: Mole fraction of ethanol	Mole fraction of 5,10,15,20-tetrakis(4-chlorophenyl) porphyrin manganese(III) chloride	uncertainty
303.2	1	.0013952	.05
313.2	1	.0013132	.05
323.2	1	.0012258	.05
333.2	1	.0011547	.05
303.2	.9504	.0012206	.05
313.2	.9504	.0011835	.05
323.2	.9504	.0011411	.05
333.2	.9504	.0010881	.05
303.2	.9038	.0010665	.05
313.2	.9038	.0010819	.05
323.2	.9038	.0010665	.05
333.2	.9038	.0010356	.05
303.2	.8597	.0008982	.05
313.2	.8597	.0009144	.05
323.2	.8597	.0009471	.05
333.2	.8597	.0009712	.05
303.2	.8182	.0008293	.05
313.2	.8182	.00085	.05
323.2	.8182	.0008712	.05
333.2	.8182	.0008922	.05
303.2	.7787	.000761	.05
313.2	.7787	.0007774	.05
323.2	.7787	.0008031	.05
333.2	.7787	.0008224	.05
303.2	.7414	.0006908	.05
313.2	.7414	.0007129	.05
323.2	.7414	.0007447	.05
333.2	.7414	.0007617	.05
303.2	.7061	.0006363	.05
313.2	.7061	.0006539	.05
323.2	.7061	.0006811	.05
333.2	.7061	.0007087	.05
303.2	.6725	.0005868	.05
313.2	.6725	.0006096	.05
323.2	.6725	.0006335	.05
333.2	.6725	.0006588	.05
303.2	.6406	.0005428	.05
313.2	.6406	.0005659	.05
323.2	.6406	.0005898	.05
333.2	.6406	.0006195	.05
303.2	.6102	.0005055	.05
313.2	.6102	.0005288	.05
323.2	.6102	.000548	.05
333.2	.6102	.0005805	.05
