Measured thermophysical data. Thermodynamic modelling of the solubility of boric acid in the systems boric acid + lithium sulfate + water and boric acid + sodium sulfate + water at 293.15 K to 313.15 K
Source: Fluid Phase Equilib., 2015, 10.1016/j.fluid.2015.04.012
Compound 1: water, H2O
Compound 2: sodium sulfate, Na2O4S, purity 99.5%
Compound 3: boric acid, BH3O3, purity 99.5%

System: water + sodium sulfate + boric acid; phases: Liquid, Crystal
Fixed: Pressure, kPa = 101
Property: Molality, mol/kg of boric acid (Liquid); method: unknown
Temperature, K	Molality, mol/kg of sodium sulfate	Molality, mol/kg of boric acid	uncertainty
293.15	0	.811	.0597
293.15	.0734	.8522	.0597
293.15	.2264	.8775	.0597
293.15	.3865	.9435	.0597
293.15	.5592	.9929	.0597
293.15	.8263	1.0501	.0597
293.15	1.0023	1.0945	.0597
293.15	1.2029	1.122	.0597
293.15	1.31	1.1477	.0597
298.15	0	.937	.0597
298.15	.0735	.9555	.0597
298.15	.2327	1.016	.0597
298.15	.3931	1.0711	.0597
298.15	.5662	1.121	.0597
298.15	.8402	1.1969	.0597
298.15	1.3436	1.3146	.0597
298.15	1.6746	1.3701	.0597
298.15	1.9123	1.418	.0597
303.15	0	1.0866	.0597
303.15	.0737	1.1054	.0597
303.15	.199	1.1543	.0597
303.15	.3826	1.2106	.0597
303.15	.5623	1.3082	.0597
303.15	.8247	1.338	.0597
303.15	1.3594	1.4761	.0597
303.15	1.8564	1.5676	.0597
303.15	2.4676	1.6272	.0597
308.15	0	1.2197	.0597
308.15	.0739	1.2678	.0597
308.15	.2283	1.3296	.0597
308.15	.3954	1.3982	.0597
308.15	.5464	1.4609	.0597
308.15	.751	1.5077	.0597
308.15	1.2081	1.6458	.0597
308.15	1.9002	1.7877	.0597
308.15	2.5793	1.8955	.0597
313.15	.0741	1.4369	.0597
313.15	.2347	1.5115	.0597
313.15	.3967	1.5809	.0597
313.15	.5715	1.6511	.0597
313.15	.8307	1.7484	.0597
313.15	1.3696	1.9046	.0597
313.15	1.9209	2.0398	.0597
313.15	2.6315	2.215	.0597

System: water + sodium sulfate + boric acid; phases: Liquid, Crystal, Crystal
Fixed: Pressure, kPa = 101
Property: Molality, mol/kg of boric acid (Liquid); method: unknown
Temperature, K	Molality, mol/kg of boric acid	uncertainty
293.15	1.2146	.0597
298.15	1.4672	.0597
303.15	1.7358	.0597
308.15	2.0033	.0597
313.15	2.2731	.0597

System: water + sodium sulfate + boric acid; phases: Liquid, Crystal, Crystal
Fixed: Pressure, kPa = 101
Property: Molality, mol/kg of sodium sulfate (Liquid); method: unknown
Temperature, K	Molality, mol/kg of sodium sulfate	uncertainty
293.15	1.67	.0059
298.15	2.4235	.0059
303.15	3.2357	.0059
308.15	3.3795	.0059
313.15	3.3242	.0059
