Measured thermophysical data. Isothermal vapor-liquid equilibrium data for the ethylene + 1,1,2,3,3,3-hexafluoro-1-propene binary system between 258 and 308 K at pressures up to 4.56 MPa
Source: Fluid Phase Equilib., 2013, 10.1016/j.fluid.2013.05.018
Compound 1: ethylene, C2H4
Compound 2: 1,1,2,3,3,3-hexafluoro-1-propene, C3F6

System: ethylene; phases: Liquid, Gas
Property: Vapor or sublimation pressure, kPa (Liquid); method: Closed cell (Static) method
Temperature, K	Vapor or sublimation pressure, kPa	uncertainty
256.22	2732	7
258.59	2903	7
261.02	3083	7
263.48	3272	7
265.94	3470	7
268.37	3671	7
270.85	3891	7
273.29	4113	7
275.68	4339	7
278.16	4588	7
280.98	4891	7

System: ethylene + 1,1,2,3,3,3-hexafluoro-1-propene; phases: Liquid, Gas
Property: Vapor or sublimation pressure, kPa (Liquid); method: Closed cell (Static) method
Mole fraction of ethylene	Temperature, K	Vapor or sublimation pressure, kPa	uncertainty
.15	258.35	639	7
.296	258.35	1082	7
.443	258.35	1500	7
.621	258.35	1914	7
.739	258.35	2192	7
.838	258.35	2415	7
.904	258.35	2596	7
.965	258.35	2762	7
.088	268.24	601	7
.229	268.24	1097	7
.335	268.24	1472	7
.443	268.24	1811	7
.581	268.24	2244	7
.701	268.24	2603	7
.837	268.24	3024	7
.94	268.24	3417	7
.069	278.1	694	7
.2	278.1	1237	7
.302	278.1	1677	7
.452	278.1	2254	7
.545	278.1	2603	7
.643	278.1	2977	7
.712	278.1	3224	7
.838	278.1	3704	7
.12	288.06	1109	7
.232	288.06	1667	7
.346	288.06	2208	7
.425	288.06	2572	7
.529	288.06	3040	7
.628	288.06	3493	7
.738	288.06	4015	7
.852	288.06	4559	7
.058	297.42	1011	7
.126	297.42	1390	7
.209	297.42	1821	7
.301	297.42	2300	7
.4	297.42	2834	7
.507	297.42	3358	7
.616	297.42	3912	7
.722	297.42	4457	7
.074	307.38	1410	7
.164	307.38	1942	7
.259	307.38	2456	7
.347	307.38	2948	7
.453	307.38	3516	7
.596	307.38	4284	7

System: ethylene + 1,1,2,3,3,3-hexafluoro-1-propene; phases: Gas, Liquid
Property: Mole fraction of ethylene (Gas); method: Chromatography
Mole fraction of ethylene	Temperature, K	Mole fraction of ethylene	uncertainty
.15	258.35	.716	.009
.296	258.35	.837	.009
.443	258.35	.886	.009
.621	258.35	.919	.009
.739	258.35	.938	.009
.838	258.35	.957	.009
.904	258.35	.969	.009
.965	258.35	.987	.009
.088	268.24	.541	.009
.229	268.24	.746	.009
.335	268.24	.817	.009
.443	268.24	.857	.009
.581	268.24	.892	.009
.701	268.24	.918	.009
.837	268.24	.946	.009
.94	268.24	.975	.009
.069	278.1	.421	.009
.2	278.1	.675	.009
.302	278.1	.763	.009
.452	278.1	.824	.009
.545	278.1	.851	.009
.643	278.1	.878	.009
.712	278.1	.893	.009
.838	278.1	.924	.009
.12	288.06	.5	.009
.232	288.06	.661	.009
.346	288.06	.749	.009
.425	288.06	.791	.009
.529	288.06	.824	.009
.628	288.06	.853	.009
.738	288.06	.881	.009
.852	288.06	.911	.009
.058	297.42	.276	.009
.126	297.42	.465	.009
.209	297.42	.579	.009
.301	297.42	.663	.009
.4	297.42	.719	.009
.507	297.42	.76	.009
.616	297.42	.795	.009
.722	297.42	.818	.009
.074	307.38	.306	.009
.164	307.38	.478	.009
.259	307.38	.572	.009
.347	307.38	.634	.009
.453	307.38	.677	.009
.596	307.38	.721	.009
