Measured thermophysical data. Solubilities of ammonia in basic imidazolium ionic liquids
Source: Fluid Phase Equilib., 2010, 10.1016/j.fluid.2010.06.005
Compound 1: ammonia, H3N, purity 99.999%
Compound 2: 1-ethyl-3-methylimidazolium tetrafluoroborate, C6H11BF4N2, purity 98%
Compound 3: 1-butyl-3-methylimidazolium tetrafluoroborate, C8H15BF4N2, purity 98%
Compound 4: 1-hexyl-3-methylimidazolium tetrafluoroborate, C10H19BF4N2, purity 98%
Compound 5: 1-octyl-3-methylimidazolium tetrafluoroborate, C12H23BF4N2, purity 98%

System: ammonia + 1-ethyl-3-methylimidazolium tetrafluoroborate; phases: Liquid, Gas
Property: Mole fraction of ammonia (Liquid); method: Titration method
Temperature, K	Pressure, kPa	Mole fraction of ammonia	uncertainty
293.15	140	.2153	.004306
293.15	250	.3392	.006784
293.15	370	.4976	.009952
293.15	470	.578	.01156
293.15	550	.6921	.013842
298.15	110	.1474	.002948
298.15	330	.4169	.008338
298.15	400	.4669	.009338
298.15	490	.5386	.010772
298.15	550	.6176	.012352
313.15	140	.1255	.00251
313.15	290	.2546	.005092
313.15	370	.3238	.006476
313.15	530	.4466	.008932
313.15	620	.5257	.010514
323.15	120	.0838	.001676
323.15	300	.2043	.004086
323.15	430	.2853	.005706
323.15	520	.3304	.006608
323.15	630	.3896	.007792
333.15	200	.1185	.00237
333.15	310	.175	.0035
333.15	430	.2284	.004568
333.15	510	.2538	.005076
333.15	570	.2549	.005098

System: ammonia + 1-ethyl-3-methylimidazolium tetrafluoroborate; phases: Liquid, Gas
Fixed: Mole fraction of ammonia = 0
Property: Henry's Law constant (mole fraction scale), kPa of ammonia (Liquid); method: Titration
Temperature, K	Henry's Law constant (mole fraction scale), kPa of ammonia	uncertainty
293.15	610.5	30.525
298.15	703.4	35.17
313.15	1099.2	54.96
323.15	1371.1	68.555
333.15	1433.8	71.69

System: ammonia + 1-butyl-3-methylimidazolium tetrafluoroborate; phases: Liquid, Gas
Property: Mole fraction of ammonia (Liquid); method: Titration method
Temperature, K	Pressure, kPa	Mole fraction of ammonia	uncertainty
293.15	130	.2645	.00529
293.15	180	.3818	.007636
293.15	290	.5087	.010174
293.15	480	.691	.01382
293.15	550	.7531	.015062
298.15	220	.3175	.00635
298.15	330	.4654	.009308
298.15	410	.5555	.01111
298.15	510	.595	.0119
298.15	630	.6635	.01327
313.15	80	.0989	.001978
313.15	180	.2001	.004002
313.15	330	.3368	.006736
313.15	450	.4431	.008862
313.15	610	.5615	.01123
323.15	150	.1296	.002592
323.15	370	.2798	.005596
323.15	560	.3799	.007598
323.15	760	.4697	.009394
323.15	830	.5087	.010174
333.15	70	.0608	.001216
333.15	170	.1103	.002206
333.15	250	.1689	.003378
333.15	400	.2519	.005038
333.15	590	.3397	.006794

System: ammonia + 1-butyl-3-methylimidazolium tetrafluoroborate; phases: Liquid, Gas
Fixed: Mole fraction of ammonia = 0
Property: Henry's Law constant (mole fraction scale), kPa of ammonia (Liquid); method: Titration
Temperature, K	Henry's Law constant (mole fraction scale), kPa of ammonia	uncertainty
293.15	416.2	20.81
298.15	554.7	27.735
313.15	800.4	40.02
323.15	1085.4	54.27
333.15	1175.1	58.755

System: ammonia + 1-hexyl-3-methylimidazolium tetrafluoroborate; phases: Liquid, Gas
Property: Mole fraction of ammonia (Liquid); method: Titration method
Temperature, K	Pressure, kPa	Mole fraction of ammonia	uncertainty
293.15	170	.3815	.00763
293.15	300	.4933	.009866
293.15	400	.6032	.012064
293.15	520	.724	.01448
293.15	580	.7543	.015086
298.15	220	.3673	.007346
298.15	340	.4977	.009954
298.15	430	.5756	.011512
298.15	560	.6992	.013984
298.15	600	.6974	.013948
313.15	230	.2722	.005444
313.15	360	.386	.00772
313.15	510	.4829	.009658
313.15	600	.5769	.011538
313.15	710	.6236	.012472
323.15	180	.1898	.003796
323.15	390	.3548	.007096
323.15	460	.4106	.008212
323.15	540	.455	.0091
323.15	710	.5779	.011558
333.15	140	.128	.00256
333.15	230	.1983	.003966
333.15	340	.2949	.005898
333.15	460	.3703	.007406
333.15	690	.5106	.010212

System: ammonia + 1-hexyl-3-methylimidazolium tetrafluoroborate; phases: Liquid, Gas
Fixed: Mole fraction of ammonia = 0
Property: Henry's Law constant (mole fraction scale), kPa of ammonia (Liquid); method: Titration
Temperature, K	Henry's Law constant (mole fraction scale), kPa of ammonia	uncertainty
293.15	388.1	19.405
298.15	499	24.95
313.15	746.3	37.315
323.15	886.8	44.34
333.15	1042.3	52.115

System: ammonia + 1-octyl-3-methylimidazolium tetrafluoroborate; phases: Liquid, Gas
Property: Mole fraction of ammonia (Liquid); method: Titration method
Temperature, K	Pressure, kPa	Mole fraction of ammonia	uncertainty
293.15	130	.4202	.008404
293.15	270	.5409	.010818
293.15	360	.6402	.012804
293.15	450	.7596	.015192
293.15	540	.8081	.016162
298.15	120	.2788	.005576
298.15	230	.438	.00876
298.15	470	.7028	.014056
298.15	370	.5868	.011736
298.15	610	.7476	.014952
313.15	180	.2832	.005664
313.15	300	.3982	.007964
313.15	390	.5051	.010102
313.15	500	.5741	.011482
313.15	600	.6438	.012876
323.15	100	.1564	.003128
323.15	280	.3471	.006942
323.15	400	.4525	.00905
323.15	530	.5485	.01097
323.15	590	.6002	.012004
333.15	120	.1321	.002642
333.15	260	.2555	.00511
333.15	420	.3798	.007596
333.15	520	.4447	.008894
333.15	590	.5022	.010044

System: ammonia + 1-octyl-3-methylimidazolium tetrafluoroborate; phases: Liquid, Gas
Fixed: Mole fraction of ammonia = 0
Property: Henry's Law constant (mole fraction scale), kPa of ammonia (Liquid); method: Titration
Temperature, K	Henry's Law constant (mole fraction scale), kPa of ammonia	uncertainty
293.15	274	13.7
298.15	382.8	19.14
313.15	555.5	27.775
323.15	653.6	32.68
333.15	853.3	42.665
