Measured thermophysical data. High pressure phase behavior for the binary mixture of valeronitrile, capronitrile and lauronitrile in supercritical carbon dioxide at temperatures from 313.2 to 393.2 K and pressures from 3.9 to 25.7 MPa
Source: Fluid Phase Equilib., 2011, 10.1016/j.fluid.2011.09.019
Compound 1: carbon dioxide, CO2, purity 99.8%
Compound 2: hexanenitrile, C6H11N, purity 96%
Compound 3: dodecanenitrile, C12H23N, purity 98%
Compound 4: pentanenitrile, C5H9N, purity 99.5%

System: pentanenitrile + carbon dioxide; phases: Liquid, Gas
Property: Vapor or sublimation pressure, kPa (Liquid); method: Visual Observation in Variable Volume Cell
Temperature, K	Mole fraction of pentanenitrile	Vapor or sublimation pressure, kPa	uncertainty
313.2	.062	8790	20
313.2	.103	8450	20
313.2	.149	8140	20
313.2	.187	8000	20
313.2	.222	7720	20
313.2	.251	7550	20
313.2	.299	7210	20
313.2	.351	6690	20
313.2	.4	6210	20
313.2	.489	5280	20
313.2	.58	4690	20
313.2	.672	3900	20
333.2	.062	11350	20
333.2	.103	11550	20
333.2	.149	11350	20
333.2	.187	10930	20
333.2	.222	10240	20
333.2	.251	9960	20
333.2	.299	9350	20
333.2	.351	8720	20
333.2	.4	7930	20
333.2	.489	6720	20
333.2	.58	5690	20
333.2	.672	4720	20
353.2	.149	14100	20
353.2	.187	13690	20
353.2	.222	13140	20
353.2	.251	12660	20
353.2	.299	11970	20
353.2	.351	10830	20
353.2	.4	10000	20
353.2	.489	8450	20
353.2	.58	6940	20
353.2	.672	5480	20
373.2	.187	15900	20
373.2	.222	15720	20
373.2	.251	15210	20
373.2	.299	14280	20
373.2	.351	12930	20
373.2	.4	11760	20
373.2	.489	9970	20
373.2	.58	8100	20
373.2	.672	6450	20
393.2	.222	17140	20
393.2	.251	17000	20
393.2	.299	16100	20
393.2	.351	14790	20
393.2	.4	13690	20
393.2	.489	11410	20
393.2	.58	9280	20
393.2	.672	7210	20

System: pentanenitrile + carbon dioxide; phases: Gas, Liquid
Property: Vapor or sublimation pressure, kPa (Gas); method: Visual Observation in Variable Volume Cell
Temperature, K	Mole fraction of pentanenitrile	Vapor or sublimation pressure, kPa	uncertainty
353.2	.062	13550	20
373.2	.062	15070	20
373.2	.103	15690	20
393.2	.062	16030	20
393.2	.103	16860	20
393.2	.149	17210	20

System: pentanenitrile + carbon dioxide; phases: Liquid, Gas
Property: Critical pressure, kPa (Liquid); method: Visual Observation in Variable Volume Cell
Temperature, K	Critical pressure, kPa	uncertainty
353.2	14380	20
373.2	16030	20
393.2	17280	20

System: pentanenitrile + carbon dioxide; phases: Liquid, Gas
Property: Critical pressure, kPa (Liquid); method: Visual Observation in Variable Volume Cell
Mole fraction of pentanenitrile	Critical pressure, kPa	uncertainty
.103	14380	20
.149	16030	20
.187	17280	20

System: carbon dioxide + hexanenitrile; phases: Liquid, Gas
Property: Vapor or sublimation pressure, kPa (Liquid); method: Visual Observation in Variable Volume Cell
Temperature, K	Mole fraction of carbon dioxide	Vapor or sublimation pressure, kPa	uncertainty
313.2	.045	9300	20
313.2	.058	9280	20
313.2	.101	8830	20
313.2	.151	8660	20
313.2	.206	8450	20
313.2	.263	7550	20
313.2	.306	7140	20
313.2	.361	6720	20
313.2	.434	6040	20
313.2	.498	5550	20
313.2	.57	4910	20
313.2	.614	4520	20
313.2	.682	3970	20
333.2	.058	11690	20
333.2	.101	11830	20
333.2	.151	11480	20
333.2	.206	11210	20
333.2	.263	10170	20
333.2	.306	9760	20
333.2	.361	8830	20
333.2	.434	7620	20
333.2	.498	6930	20
333.2	.57	6170	20
333.2	.614	5550	20
333.2	.682	4900	20
353.2	.101	14660	20
353.2	.151	15000	20
353.2	.206	14030	20
353.2	.263	12860	20
353.2	.306	12170	20
353.2	.361	11210	20
353.2	.434	9350	20
353.2	.498	8310	20
353.2	.57	7280	20
353.2	.614	6720	20
353.2	.682	5690	20
373.2	.151	17100	20
373.2	.206	16720	20
373.2	.263	15070	20
373.2	.306	14690	20
373.2	.361	13140	20
373.2	.434	11070	20
373.2	.498	9690	20
373.2	.57	8590	20
373.2	.614	7620	20
373.2	.682	6450	20
393.2	.206	18170	20
393.2	.263	17380	20
393.2	.306	16450	20
393.2	.361	15170	20
393.2	.434	12860	20
393.2	.498	11030	20
393.2	.57	9660	20
393.2	.614	8590	20
393.2	.682	7100	20

System: carbon dioxide + hexanenitrile; phases: Gas, Liquid
Property: Vapor or sublimation pressure, kPa (Gas); method: Visual Observation in Variable Volume Cell
Temperature, K	Mole fraction of carbon dioxide	Vapor or sublimation pressure, kPa	uncertainty
333.2	.045	11660	20
353.2	.045	13970	20
353.2	.058	14240	20
373.2	.045	15620	20
373.2	.058	16170	20
393.2	.045	16450	20
393.2	.058	17210	20
393.2	.101	18070	20

System: carbon dioxide + hexanenitrile; phases: Liquid, Gas
Property: Critical pressure, kPa (Liquid); method: Visual Observation in Variable Volume Cell
Temperature, K	Critical pressure, kPa	uncertainty
373.2	16720	20
393.2	18520	20

System: carbon dioxide + hexanenitrile; phases: Liquid, Gas
Property: Critical pressure, kPa (Liquid); method: Visual Observation in Variable Volume Cell
Mole fraction of hexanenitrile	Critical pressure, kPa	uncertainty
.101	16720	20
.151	18520	20

System: carbon dioxide + dodecanenitrile; phases: Liquid, Gas
Property: Vapor or sublimation pressure, kPa (Liquid); method: Visual Observation in Variable Volume Cell
Temperature, K	Mole fraction of carbon dioxide	Vapor or sublimation pressure, kPa	uncertainty
313.2	.044	10280	20
313.2	.063	10660	20
313.2	.084	10310	20
313.2	.108	10660	20
313.2	.16	10000	20
313.2	.21	9350	20
313.2	.257	8690	20
313.2	.297	8450	20
313.2	.368	7410	20
313.2	.412	7070	20
313.2	.465	6550	20
313.2	.552	5720	20
313.2	.637	5000	20
333.2	.063	15760	20
333.2	.084	15690	20
333.2	.108	15210	20
333.2	.16	14240	20
333.2	.21	12720	20
333.2	.257	11760	20
333.2	.297	10930	20
333.2	.368	9210	20
333.2	.412	8720	20
333.2	.465	7930	20
333.2	.552	6660	20
333.2	.637	5550	20
353.2	.063	19900	20
353.2	.084	19970	20
353.2	.108	19450	20
353.2	.16	18240	20
353.2	.21	16310	20
353.2	.257	14720	20
353.2	.297	13550	20
353.2	.368	11140	20
353.2	.412	10310	20
353.2	.465	9280	20
353.2	.552	7620	20
353.2	.637	6170	20
373.2	.084	23140	20
373.2	.108	22790	20
373.2	.16	21620	20
373.2	.21	19620	20
373.2	.257	17830	20
373.2	.297	16070	20
373.2	.368	13350	20
373.2	.412	11900	20
373.2	.465	10690	20
373.2	.552	8660	20
373.2	.637	6930	20
393.2	.108	25140	20
393.2	.16	24450	20
393.2	.21	22380	20
393.2	.257	20170	20
393.2	.297	18100	20
393.2	.368	15210	20
393.2	.412	13410	20
393.2	.465	11790	20
393.2	.552	9550	20
393.2	.637	7550	20

System: carbon dioxide + dodecanenitrile; phases: Gas, Liquid
Property: Vapor or sublimation pressure, kPa (Gas); method: Visual Observation in Variable Volume Cell
Temperature, K	Mole fraction of carbon dioxide	Vapor or sublimation pressure, kPa	uncertainty
313.2	.02	10170	20
333.2	.02	15000	20
333.2	.044	15620	20
353.2	.02	18450	20
353.2	.044	19790	20
373.2	.02	21280	20
373.2	.044	23030	20
393.2	.02	23070	20
393.2	.044	25350	20
393.2	.063	25550	20

System: carbon dioxide + dodecanenitrile; phases: Liquid, Gas
Property: Critical pressure, kPa (Liquid); method: Visual Observation in Variable Volume Cell
Temperature, K	Critical pressure, kPa	uncertainty
373.2	23210	20
393.2	25690	20

System: carbon dioxide + dodecanenitrile; phases: Liquid, Gas
Property: Critical pressure, kPa (Liquid); method: Visual Observation in Variable Volume Cell
Mole fraction of dodecanenitrile	Critical pressure, kPa	uncertainty
.063	23210	20
.084	25690	20
