Measured thermophysical data. Study of di-hydrogen (Na; K or NH4) orthophosphates in aqueous solutions at temperatures from 298.15 K to 353.15 K
Source: Fluid Phase Equilib., 2016, 10.1016/j.fluid.2015.08.035
Compound 1: sodium dihydrogen phosphate anhydrous, H2NaO4P, purity 98%
Compound 2: potassium dihydrogen phosphate (KH2PO4), H2KO4P, purity 98%
Compound 3: monoammonium hydrogen phosphate, H6NO4P, purity 99%
Compound 4: water, H2O, purity 99.9%

System: sodium dihydrogen phosphate anhydrous + water; phases: Liquid
Fixed: Pressure, kPa = 101
Property: (Relative) activity of water (Liquid); method: hygrometric
Temperature, K	Molality, mol/kg of sodium dihydrogen phosphate anhydrous	(Relative) activity of water	uncertainty
298.15	.1	.9967	.0002
298.15	.2	.9937	.0002
298.15	.3	.9907	.0002
298.15	.4	.9879	.0002
298.15	.5	.9851	.0002
298.15	1	.9722	.0002
298.15	1.5	.9604	.0005
298.15	2	.9492	.0009
298.15	2.5	.9383	.0009
298.15	3	.9276	.0009
298.15	3.5	.9169	.0009
298.15	4	.9055	.0009
298.15	5	.882	.002
298.15	6	.857	.002
298.15	7	.8298	.002
313.15	.1	.9967	.0002
313.15	.2	.9937	.0002
313.15	.3	.9908	.0002
313.15	.4	.9879	.0002
313.15	.5	.9852	.0002
313.15	1	.9725	.0002
313.15	1.5	.9607	.0005
313.15	2	.9498	.0009
313.15	2.5	.9387	.0009
313.15	3	.9277	.0009
313.15	3.5	.9171	.0009
313.15	4	.9062	.0009
313.15	5	.8835	.002
313.15	6	.8605	.002
313.15	7	.8371	.002
313.15	8	.8113	.002
313.15	10	.7638	.002
313.15	11	.7396	.002
333.15	.1	.9968	.0002
333.15	.2	.9937	.0002
333.15	.3	.9908	.0002
333.15	.4	.988	.0002
333.15	.5	.9854	.0002
333.15	1	.9726	.0002
333.15	1.5	.961	.0005
333.15	2	.9501	.0005
333.15	2.5	.9391	.0009
333.15	3	.9282	.0009
333.15	3.5	.9182	.0009
333.15	4	.9073	.0009
333.15	5	.8855	.002
333.15	6	.8637	.002
333.15	7	.8416	.002
333.15	8	.8192	.002
333.15	10	.7729	.002
333.15	11	.7503	.002
333.15	13	.7058	.002
353.15	.1	.9968	.0002
353.15	.2	.9938	.0002
353.15	.3	.9909	.0002
353.15	.4	.9882	.0002
353.15	.5	.9855	.0002
353.15	1	.9728	.0002
353.15	1.5	.9614	.0005
353.15	2	.9504	.0005
353.15	2.5	.9397	.0009
353.15	3	.9295	.0009
353.15	3.5	.9192	.0009
353.15	4	.9095	.0009
353.15	5	.8892	.002
353.15	6	.8689	.002
353.15	7	.849	.002
353.15	8	.8284	.002
353.15	10	.7875	.002
353.15	11	.7668	.002
353.15	13	.7259	.002
353.15	15	.6865	.002
353.15	18	.629	.002

System: sodium dihydrogen phosphate anhydrous + water; phases: Liquid
Fixed: Pressure, kPa = 101
Property: Osmotic coefficient (Liquid); method: hygrometric
Temperature, K	Molality, mol/kg of sodium dihydrogen phosphate anhydrous	Osmotic coefficient	uncertainty
298.15	.1	.918	.005
298.15	.2	.878	.005
298.15	.3	.865	.005
298.15	.4	.845	.005
298.15	.5	.834	.005
298.15	1	.783	.005
298.15	1.5	.748	.005
298.15	2	.724	.005
298.15	2.5	.708	.005
298.15	3	.696	.005
298.15	3.5	.688	.005
298.15	4	.689	.005
298.15	5	.697	.005
298.15	6	.714	.005
298.15	7	.74	.005
313.15	.1	.906	.005
313.15	.2	.88	.005
313.15	.3	.859	.005
313.15	.4	.842	.005
313.15	.5	.826	.005
313.15	1	.773	.005
313.15	1.5	.741	.005
313.15	2	.715	.005
313.15	2.5	.702	.005
313.15	3	.694	.005
313.15	3.5	.686	.005
313.15	4	.683	.005
313.15	5	.688	.005
313.15	6	.695	.005
313.15	7	.705	.005
313.15	8	.726	.005
313.15	10	.748	.005
313.15	11	.761	.005
333.15	.1	.9	.005
333.15	.2	.872	.005
333.15	.3	.853	.005
333.15	.4	.836	.005
333.15	.5	.819	.005
333.15	1	.77	.005
333.15	1.5	.736	.005
333.15	2	.711	.005
333.15	2.5	.698	.005
333.15	3	.689	.005
333.15	3.5	.677	.005
333.15	4	.675	.005
333.15	5	.675	.005
333.15	6	.678	.005
333.15	7	.684	.005
333.15	8	.692	.005
333.15	10	.715	.005
333.15	11	.725	.005
333.15	13	.744	.005
353.15	.1	.894	.005
353.15	.2	.863	.005
353.15	.3	.842	.005
353.15	.4	.827	.005
353.15	.5	.81	.005
353.15	1	.766	.005
353.15	1.5	.729	.005
353.15	2	.705	.005
353.15	2.5	.69	.005
353.15	3	.676	.005
353.15	3.5	.668	.005
353.15	4	.658	.005
353.15	5	.652	.005
353.15	6	.65	.005
353.15	7	.649	.005
353.15	8	.653	.005
353.15	10	.663	.005
353.15	11	.67	.005
353.15	13	.684	.005
353.15	15	.696	.005
353.15	18	.715	.005

System: water + potassium dihydrogen phosphate (KH2PO4); phases: Liquid
Fixed: Pressure, kPa = 101
Property: (Relative) activity of water (Liquid); method: hygrometric
Temperature, K	Molality, mol/kg of potassium dihydrogen phosphate (KH2PO4)	(Relative) activity of water	uncertainty
298.15	.1	.9967	.0002
298.15	.15	.9952	.0002
298.15	.2	.9937	.0002
298.15	.25	.9923	.0002
298.15	.3	.9909	.0002
298.15	.35	.9895	.0002
298.15	.4	.9882	.0002
298.15	.45	.9869	.0002
298.15	.5	.9856	.0002
298.15	1	.974	.0002
298.15	1.5	.9635	.0005
313.15	.1	.9968	.0002
313.15	.15	.9952	.0002
313.15	.2	.9938	.0002
313.15	.25	.9923	.0002
313.15	.3	.9909	.0002
313.15	.35	.9896	.0002
313.15	.4	.9883	.0002
313.15	.45	.987	.0002
313.15	.5	.9857	.0002
313.15	1	.974	.0002
313.15	1.5	.9636	.0005
313.15	2	.954	.0005
313.15	2.5	.9442	.0009
333.15	.1	.9968	.0002
333.15	.15	.9953	.0002
333.15	.2	.9938	.0002
333.15	.25	.9924	.0002
333.15	.3	.991	.0002
333.15	.35	.9896	.0002
333.15	.4	.9883	.0002
333.15	.45	.987	.0002
333.15	.5	.9858	.0002
333.15	1	.9741	.0002
333.15	1.5	.9639	.0005
333.15	2	.9543	.0005
333.15	2.5	.9445	.0009
333.15	3	.9346	.0009
333.15	3.5	.9247	.0009
353.15	.1	.9968	.0002
353.15	.15	.9953	.0002
353.15	.2	.9939	.0002
353.15	.25	.9924	.0002
353.15	.3	.991	.0002
353.15	.35	.9897	.0002
353.15	.4	.9884	.0002
353.15	.45	.9871	.0002
353.15	.5	.9858	.0002
353.15	1	.9743	.0002
353.15	1.5	.964	.0005
353.15	2	.9546	.0005
353.15	2.5	.9453	.0009
353.15	3	.9365	.0009
353.15	3.5	.9276	.0009
353.15	4	.9187	.0009
353.15	4.5	.9102	.0009
353.15	5	.9013	.0009

System: water + potassium dihydrogen phosphate (KH2PO4); phases: Liquid
Fixed: Pressure, kPa = 101
Property: Osmotic coefficient (Liquid); method: hygrometric
Temperature, K	Molality, mol/kg of potassium dihydrogen phosphate (KH2PO4)	Osmotic coefficient	uncertainty
298.15	.1	.901	.005
298.15	.15	.884	.005
298.15	.2	.867	.005
298.15	.25	.86	.005
298.15	.3	.846	.005
298.15	.35	.836	.005
298.15	.4	.824	.005
298.15	.45	.813	.005
298.15	.5	.806	.005
298.15	1	.732	.005
298.15	1.5	.688	.005
313.15	.1	.896	.005
313.15	.15	.882	.005
313.15	.2	.867	.005
313.15	.25	.853	.005
313.15	.3	.842	.005
313.15	.35	.829	.005
313.15	.4	.819	.005
313.15	.45	.81	.005
313.15	.5	.801	.005
313.15	1	.731	.005
313.15	1.5	.687	.005
313.15	2	.654	.005
313.15	2.5	.637	.005
333.15	.1	.89	.005
333.15	.15	.875	.005
333.15	.2	.863	.005
333.15	.25	.848	.005
333.15	.3	.837	.005
333.15	.35	.827	.005
333.15	.4	.815	.005
333.15	.45	.807	.005
333.15	.5	.796	.005
333.15	1	.727	.005
333.15	1.5	.68	.005
333.15	2	.649	.005
333.15	2.5	.634	.005
333.15	3	.626	.005
333.15	3.5	.621	.005
353.15	.1	.886	.005
353.15	.15	.868	.005
353.15	.2	.856	.005
353.15	.25	.846	.005
353.15	.3	.832	.005
353.15	.35	.823	.005
353.15	.4	.811	.005
353.15	.45	.802	.005
353.15	.5	.793	.005
353.15	1	.724	.005
353.15	1.5	.679	.005
353.15	2	.645	.005
353.15	2.5	.624	.005
353.15	3	.607	.005
353.15	3.5	.596	.005
353.15	4	.588	.005
353.15	4.5	.58	.005
353.15	5	.577	.005

System: monoammonium hydrogen phosphate + water; phases: Liquid
Fixed: Pressure, kPa = 101
Property: (Relative) activity of water (Liquid); method: hygrometric
Temperature, K	Molality, mol/kg of monoammonium hydrogen phosphate	(Relative) activity of water	uncertainty
298.15	.1	.9968	.0002
298.15	.2	.9939	.0002
298.15	.3	.9912	.0002
298.15	.4	.9887	.0002
298.15	.5	.9862	.0002
298.15	1	.9751	.0002
298.15	1.5	.9651	.0005
298.15	2	.9556	.0005
298.15	2.5	.9467	.0009
298.15	3	.9385	.0009
298.15	3.5	.9303	.0009
313.15	.1	.9969	.0002
313.15	.2	.994	.0002
313.15	.3	.9914	.0002
313.15	.4	.9888	.0002
313.15	.5	.9864	.0002
313.15	1	.9752	.0002
313.15	1.5	.9652	.0005
313.15	2	.956	.0005
313.15	2.5	.9474	.0009
313.15	3	.9394	.0009
313.15	3.5	.9312	.0009
313.15	4	.9227	.0009
313.15	4.5	.915	.0009
313.15	5	.9068	.0009
333.15	.1	.9969	.0002
333.15	.2	.994	.0002
333.15	.3	.9914	.0002
333.15	.4	.9889	.0002
333.15	.5	.9865	.0002
333.15	1	.9754	.0002
333.15	1.5	.9655	.0005
333.15	2	.9564	.0005
333.15	2.5	.9481	.0009
333.15	3	.9401	.0009
333.15	3.5	.9318	.0009
333.15	4	.9242	.0009
333.15	4.5	.9166	.0009
333.15	5	.9099	.0009
333.15	6	.8948	.002
333.15	7	.8811	.002
353.15	.1	.9969	.0002
353.15	.2	.9941	.0002
353.15	.3	.9915	.0002
353.15	.4	.989	.0002
353.15	.5	.9866	.0002
353.15	1	.9757	.0002
353.15	1.5	.966	.0005
353.15	2	.9572	.0005
353.15	2.5	.9495	.0009
353.15	3	.9417	.0009
353.15	3.5	.9341	.0009
353.15	4	.9266	.0009
353.15	4.5	.9196	.0009
353.15	5	.9129	.0009
353.15	6	.8991	.002
353.15	7	.8862	.002
353.15	8	.8741	.002
353.15	10	.85	.002
353.15	12	.8275	.002

System: monoammonium hydrogen phosphate + water; phases: Liquid
Fixed: Pressure, kPa = 101
Property: Osmotic coefficient (Liquid); method: hygrometric
Temperature, K	Molality, mol/kg of monoammonium hydrogen phosphate	Osmotic coefficient	uncertainty
298.15	.1	.89	.005
298.15	.2	.847	.005
298.15	.3	.816	.005
298.15	.4	.79	.005
298.15	.5	.77	.005
298.15	1	.701	.005
298.15	1.5	.658	.005
298.15	2	.63	.005
298.15	2.5	.608	.005
298.15	3	.587	.005
298.15	3.5	.573	.005
313.15	.1	.875	.005
313.15	.2	.833	.005
313.15	.3	.802	.005
313.15	.4	.78	.005
313.15	.5	.76	.005
313.15	1	.697	.005
313.15	1.5	.655	.005
313.15	2	.624	.005
313.15	2.5	.6	.005
313.15	3	.578	.005
313.15	3.5	.565	.005
313.15	4	.558	.005
313.15	4.5	.548	.005
313.15	5	.543	.005
333.15	.1	.872	.005
333.15	.2	.829	.005
333.15	.3	.799	.005
333.15	.4	.776	.005
333.15	.5	.756	.005
333.15	1	.69	.005
333.15	1.5	.65	.005
333.15	2	.618	.005
333.15	2.5	.592	.005
333.15	3	.571	.005
333.15	3.5	.56	.005
333.15	4	.547	.005
333.15	4.5	.537	.005
333.15	5	.524	.005
333.15	6	.514	.005
333.15	7	.502	.005
353.15	.1	.865	.005
353.15	.2	.823	.005
353.15	.3	.792	.005
353.15	.4	.771	.005
353.15	.5	.75	.005
353.15	1	.682	.005
353.15	1.5	.64	.005
353.15	2	.607	.005
353.15	2.5	.575	.005
353.15	3	.556	.005
353.15	3.5	.541	.005
353.15	4	.529	.005
353.15	4.5	.517	.005
353.15	5	.506	.005
353.15	6	.492	.005
353.15	7	.479	.005
353.15	8	.467	.005
353.15	10	.451	.005
353.15	12	.438	.005
