Measured thermophysical data. Critical point measurements of four pyridines
Source: Fluid Phase Equilib., 2017, 10.1016/j.fluid.2017.05.010
Compound 1: 2-ethylpyridine, C7H9N, purity 99.7%
Compound 2: 3-ethylpyridine, C7H9N, purity 99.5%
Compound 3: 4-ethylpyridine, C7H9N, purity 99.5%
Compound 4: 5-ethyl-2-methylpyridine, C8H11N, purity 97.6%

System: 2-ethylpyridine; phases: Liquid, Gas
Property: Critical temperature, K (Liquid); method: Resistive pulse heating
Critical temperature, K	uncertainty
628	3

System: 2-ethylpyridine; phases: Liquid, Gas
Property: Critical pressure, kPa (Liquid); method: Resistive pulse heating
Critical pressure, kPa	uncertainty
3810	55

System: 3-ethylpyridine; phases: Liquid, Gas
Property: Critical temperature, K (Liquid); method: Resistive pulse heating
Critical temperature, K	uncertainty
651	3.5

System: 3-ethylpyridine; phases: Liquid, Gas
Property: Critical pressure, kPa (Liquid); method: Resistive pulse heating
Critical pressure, kPa	uncertainty
4190	65

System: 4-ethylpyridine; phases: Liquid, Gas
Property: Critical temperature, K (Liquid); method: Resistive pulse heating
Critical temperature, K	uncertainty
653	3.5

System: 4-ethylpyridine; phases: Liquid, Gas
Property: Critical pressure, kPa (Liquid); method: Resistive pulse heating
Critical pressure, kPa	uncertainty
4190	65

System: 5-ethyl-2-methylpyridine; phases: Liquid, Gas
Property: Critical temperature, K (Liquid); method: Resistive pulse heating
Critical temperature, K	uncertainty
656	3.5

System: 5-ethyl-2-methylpyridine; phases: Liquid, Gas
Property: Critical pressure, kPa (Liquid); method: Resistive pulse heating
Critical pressure, kPa	uncertainty
3250	50
