Measured thermophysical data. High pressure vapor-liquid equilibria for binary methane and protic ionic liquid based on propionate anions
Source: Fluid Phase Equilib., 2016, 10.1016/j.fluid.2016.03.021
Compound 1: ethanolamine, C2H7NO, purity 99.0%
Compound 2: bis(2-hydroxyethyl)amine, C4H11NO2, purity 99.0%
Compound 3: propanoic acid, C3H6O2, purity 99.5%
Compound 4: methane, CH4, purity 99.5%
Compound 5: N-methylethanolamine, C3H9NO, purity 99.0%
Compound 6: 2-hydroxy-N-methylethanaminium propionate, C6H15NO3
Compound 7: 2-hydroxyethan-1-aminium propionate, C5H13NO3
Compound 8: bis(2-hydroxyethyl)ammonium propanoate, C7H17NO4
Compound 9: methanol, CH4O, purity 99.9%
Compound 10: ethanol, C2H6O, purity 99.8%

System: methane + 2-hydroxy-N-methylethanaminium propionate; phases: Liquid, Gas
Property: Vapor or sublimation pressure, kPa (Liquid); method: Closed cell (Static) method
Temperature, K	Mole fraction of methane	Vapor or sublimation pressure, kPa	uncertainty
333.1	.0153	3850	
333.1	.0237	4520	
333.1	.0314	5460	
333.1	.0513	10280	
333.1	.0669	11850	
333.1	.0784	15210	
343.1	.0153	4060	
343.1	.0237	4660	
343.1	.0314	5530	
343.1	.0513	10360	
343.1	.0669	11930	
343.1	.0784	15270	
353.1	.0153	4120	
353.1	.0237	4760	
353.1	.0314	5650	
353.1	.0513	10430	
353.1	.0669	12020	
353.1	.0784	15340	
363.1	.0153	4210	
363.1	.0237	4830	
363.1	.0314	5770	
363.1	.0513	10570	
363.1	.0669	12140	
363.1	.0784	15390	

System: methane + 2-hydroxyethan-1-aminium propionate; phases: Liquid, Gas
Property: Vapor or sublimation pressure, kPa (Liquid); method: Closed cell (Static) method
Temperature, K	Mole fraction of methane	Vapor or sublimation pressure, kPa	uncertainty
333.1	.0141	4820	
333.1	.0351	6930	
333.1	.0429	9240	
333.1	.0537	11130	
343.1	.0141	4950	
343.1	.0351	7060	
343.1	.0429	9380	
343.1	.0537	11250	
353.1	.0141	5070	
353.1	.0351	7140	
353.1	.0429	9490	
353.1	.0537	11370	
363.1	.0141	5130	
363.1	.0351	7270	
363.1	.0429	9570	
363.1	.0537	11460	

System: methane + bis(2-hydroxyethyl)ammonium propanoate; phases: Liquid, Gas
Property: Vapor or sublimation pressure, kPa (Liquid); method: Closed cell (Static) method
Temperature, K	Mole fraction of methane	Vapor or sublimation pressure, kPa	uncertainty
333.1	.0146	4660	
333.1	.0217	5230	
333.1	.0333	6220	
333.1	.045	8120	
333.1	.0668	12060	
343.1	.0146	4780	
343.1	.0217	5330	
343.1	.0333	6310	
343.1	.045	8310	
343.1	.0668	12190	
353.1	.0146	4830	
353.1	.0217	5450	
353.1	.0333	6470	
353.1	.045	8390	
353.1	.0668	12280	
363.1	.0146	4890	
363.1	.0217	5510	
363.1	.0333	6540	
363.1	.045	8440	
363.1	.0668	12340	

System: methanol + methane; phases: Liquid, Gas
Property: Vapor or sublimation pressure, kPa (Liquid); method: Closed cell (Static) method
Temperature, K	Mole fraction of methanol	Vapor or sublimation pressure, kPa	uncertainty
303	.0434	4880	
303	.0835	8890	
303	.1276	14500	
303	.1619	19630	
313	.0434	5070	
313	.0835	9280	
313	.1276	14870	
313	.1619	19930	
323	.0434	5230	
323	.0835	9600	
323	.1276	15230	
323	.1619	20180	

System: ethanol + methane; phases: Liquid, Gas
Property: Vapor or sublimation pressure, kPa (Liquid); method: Closed cell (Static) method
Temperature, K	Mole fraction of ethanol	Vapor or sublimation pressure, kPa	uncertainty
303	.1006	7750	
303	.1195	9320	
303	.1469	12160	
303	.1712	14340	
313	.1006	7990	
313	.1195	9670	
313	.1469	12630	
313	.1712	14820	
323	.1006	8280	
323	.1195	10030	
323	.1469	12970	
323	.1712	15220	
