Measured thermophysical data. Study on the aqueous two-phase systems composed of surfactant, ionic liquid and water
Source: Fluid Phase Equilib., 2013, 10.1016/j.fluid.2013.03.004
Compound 1: 1-hexyl-3-methylimidazolium tetrafluoroborate, C10H19BF4N2, purity 99%
Compound 2: sodium dodecylbenzenesulfonate, C18H29NaO3S, purity 98%
Compound 3: 3-p-nonylphenoxy-2-hydroxypropyltrimethylammonium bromide, C21H38BrNO2, purity 98%
Compound 4: water, H2O, purity 99.9%

System: 3-p-nonylphenoxy-2-hydroxypropyltrimethylammonium bromide + water + 1-hexyl-3-methylimidazolium tetrafluoroborate; phases: Liquid mixture 2, Liquid mixture 1
Fixed: Pressure, kPa = 101
Property: Mass fraction of 3-p-nonylphenoxy-2-hydroxypropyltrimethylammonium bromide (Liquid mixture 2); method: Density calibration data
Property: Mass fraction of 3-p-nonylphenoxy-2-hydroxypropyltrimethylammonium bromide (Liquid mixture 1); method: Density calibration data
Property: Mass fraction of 1-hexyl-3-methylimidazolium tetrafluoroborate (Liquid mixture 1); method: Density calibration data
Temperature, K	Mass fraction of 1-hexyl-3-methylimidazolium tetrafluoroborate	Mass fraction of 3-p-nonylphenoxy-2-hydroxypropyltrimethylammonium bromide	uncertainty	Mass fraction of 3-p-nonylphenoxy-2-hydroxypropyltrimethylammonium bromide	uncertainty	Mass fraction of 1-hexyl-3-methylimidazolium tetrafluoroborate	uncertainty
293.15	.7961	.0149		.0653		.0306	
293.15	.7912	.0188		.0732		.0319	
293.15	.7678	.0232		.0767		.0345	
293.15	.7289	.0254		.0853		.0375	
293.15	.6966	.0282		.0911		.0422	
293.15	.7037	.0412		.0815		.0254	
293.15	.7552	.0344		.0805		.0294	
293.15	.773	.0183		.0786		.0362	
293.15	.7956	.0101		.0707		.0449	

System: 3-p-nonylphenoxy-2-hydroxypropyltrimethylammonium bromide + water + 1-hexyl-3-methylimidazolium tetrafluoroborate; phases: Liquid
Fixed: Temperature, K = 293.15
Fixed: Pressure, kPa = 101
Property: Mass density, kg/m3 (Liquid); method: Vibrating tube method
Mass fraction of 3-p-nonylphenoxy-2-hydroxypropyltrimethylammonium bromide	Mass fraction of 1-hexyl-3-methylimidazolium tetrafluoroborate	Mass density, kg/m3	uncertainty
.0653	.0306	1013.744	.05
.0732	.0319	1016.41	.05
.0767	.0345	1018.243	.05
.0853	.0375	1020.099	.05
.0911	.0422	1021.573	.05
.0815	.0254	1016.56	.05
.0805	.0294	1017.261	.05
.0786	.0362	1018.494	.05
.0707	.0449	1018.715	.05

System: 3-p-nonylphenoxy-2-hydroxypropyltrimethylammonium bromide + water + 1-hexyl-3-methylimidazolium tetrafluoroborate; phases: Liquid
Fixed: Temperature, K = 293.15
Fixed: Pressure, kPa = 101
Property: Mass density, kg/m3 (Liquid); method: Vibrating tube method
Mass fraction of 3-p-nonylphenoxy-2-hydroxypropyltrimethylammonium bromide	Mass fraction of 1-hexyl-3-methylimidazolium tetrafluoroborate	Mass density, kg/m3	uncertainty
.0149	.7961	1112.705	.05
.0188	.7912	1107.935	.05
.0232	.7678	1105.123	.05
.0254	.7289	1099.87	.05
.0282	.6966	1091.723	.05
.0412	.7037	1098.693	.05
.0344	.7552	1099.02	.05
.0183	.773	1105.127	.05
.0101	.7956	1105.653	.05

System: water + sodium dodecylbenzenesulfonate + 1-hexyl-3-methylimidazolium tetrafluoroborate; phases: Liquid mixture 2, Liquid mixture 1
Fixed: Pressure, kPa = 101
Property: Mass fraction of sodium dodecylbenzenesulfonate (Liquid mixture 2); method: Density calibration data
Property: Mass fraction of sodium dodecylbenzenesulfonate (Liquid mixture 1); method: Density calibration data
Property: Mass fraction of 1-hexyl-3-methylimidazolium tetrafluoroborate (Liquid mixture 1); method: Density calibration data
Temperature, K	Mass fraction of 1-hexyl-3-methylimidazolium tetrafluoroborate	Mass fraction of sodium dodecylbenzenesulfonate	uncertainty	Mass fraction of sodium dodecylbenzenesulfonate	uncertainty	Mass fraction of 1-hexyl-3-methylimidazolium tetrafluoroborate	uncertainty
293.15	.7701	.0158		.0486		.0204	
293.15	.7618	.013		.0487		.022	
293.15	.7362	.0124		.0525		.0238	
293.15	.7117	.0105		.0583		.0264	
293.15	.6809	.0095		.0687		.0335	
293.15	.6728	.0147		.0509		.0206	
293.15	.7163	.0119		.0502		.0232	
293.15	.7599	.0099		.049		.03	
293.15	.7758	.0087		.0489		.0356	

System: water + sodium dodecylbenzenesulfonate + 1-hexyl-3-methylimidazolium tetrafluoroborate; phases: Liquid
Fixed: Temperature, K = 293.15
Fixed: Pressure, kPa = 101
Property: Mass density, kg/m3 (Liquid); method: Vibrating tube method
Mass fraction of sodium dodecylbenzenesulfonate	Mass fraction of 1-hexyl-3-methylimidazolium tetrafluoroborate	Mass density, kg/m3	uncertainty
.0486	.0204	1019.025	.05
.0487	.022	1024.392	.05
.0525	.0238	1031.192	.05
.0583	.0264	1037.886	.05
.0687	.0335	1045.609	.05
.0509	.0206	1026.807	.05
.0502	.0232	1028.807	.05
.049	.03	1033.773	.05
.0489	.0356	1037.124	.05

System: water + sodium dodecylbenzenesulfonate + 1-hexyl-3-methylimidazolium tetrafluoroborate; phases: Liquid
Fixed: Temperature, K = 293.15
Fixed: Pressure, kPa = 101
Property: Mass density, kg/m3 (Liquid); method: Vibrating tube method
Mass fraction of sodium dodecylbenzenesulfonate	Mass fraction of 1-hexyl-3-methylimidazolium tetrafluoroborate	Mass density, kg/m3	uncertainty
.0158	.7701	1096.54	.05
.013	.7618	1087.992	.05
.0124	.7362	1082.943	.05
.0105	.7117	1078.14	.05
.0095	.6809	1074.452	.05
.0147	.6728	1068.558	.05
.0119	.7163	1076.416	.05
.0099	.7599	1087.682	.05
.0087	.7758	1091.48	.05
