Measured thermophysical data. Biobutanol and n-propanol recovery using a low density  phosphonium based ionic liquid at T = 298.15 K and p = 1 atm
Source: Fluid Phase Equilib., 2013, 10.1016/j.fluid.2013.06.047
Compound 1: 1-propanol, C3H8O, purity 99%
Compound 2: 1-butanol, C4H10O, purity 99%
Compound 3: trihexyltetradecylphosphonium bis(2,4,4-trimethylpentyl)phosphinate, C48H102O2P2, purity 99%
Compound 4: water, H2O

System: 1-propanol + water + trihexyltetradecylphosphonium bis(2,4,4-trimethylpentyl)phosphinate; phases: Liquid mixture 1, Liquid mixture 2
Fixed: Temperature, K = 298.15
Fixed: Pressure, kPa = 101
Property: Mole fraction of 1-propanol (Liquid mixture 1); method: Other
Property: Mole fraction of 1-propanol (Liquid mixture 2); method: Other
Property: Mole fraction of trihexyltetradecylphosphonium bis(2,4,4-trimethylpentyl)phosphinate (Liquid mixture 2); method: Other
Mole fraction of trihexyltetradecylphosphonium bis(2,4,4-trimethylpentyl)phosphinate	Mole fraction of 1-propanol	uncertainty	Mole fraction of 1-propanol	uncertainty	Mole fraction of trihexyltetradecylphosphonium bis(2,4,4-trimethylpentyl)phosphinate	uncertainty
.3527	.4475		.0279		0	
.4183	.3878		.0139		0	
.1891	.6301		.0376		0	
.0631	.7435		.0669		0	
.2751	.5309		.0302		0	
.5172	.2968		.0089		0	
.6503	.1787		.0077		0	
.6846	.1437		.0033		0	

System: 1-butanol + water + trihexyltetradecylphosphonium bis(2,4,4-trimethylpentyl)phosphinate; phases: Liquid mixture 2, Liquid mixture 1
Fixed: Temperature, K = 298.15
Fixed: Pressure, kPa = 101
Property: Mole fraction of trihexyltetradecylphosphonium bis(2,4,4-trimethylpentyl)phosphinate (Liquid mixture 2); method: Other
Property: Mole fraction of trihexyltetradecylphosphonium bis(2,4,4-trimethylpentyl)phosphinate (Liquid mixture 1); method: Other
Property: Mole fraction of 1-butanol (Liquid mixture 1); method: Other
Mole fraction of 1-butanol	Mole fraction of trihexyltetradecylphosphonium bis(2,4,4-trimethylpentyl)phosphinate	uncertainty	Mole fraction of trihexyltetradecylphosphonium bis(2,4,4-trimethylpentyl)phosphinate	uncertainty	Mole fraction of 1-butanol	uncertainty
.0004	0		.6723		.1511	
.0066	0		.5682		.2759	
.0074	0		.4027		.4149	
.0077	0		.3413		.4561	
.0109	0		.2894		.5026	
.0263	0		.2513		.5411	
.0324	0		.1602		.6119	
.0377	0		.0923		.7241	
