Measured thermophysical data. Vapour-liquid equilibria in binary and ternary systems composed of 2,3-dimethylbutane, diisopropyl ether, and 3-methyl-2-butanone at 313.15, 323.15 and 313.15 K
Source: Fluid Phase Equilib., 2013, 10.1016/j.fluid.2013.01.020
Compound 1: 2,3-dimethylbutane, C6H14, purity 98%
Compound 2: ethane, 1-methyl-1-(1-methylethoxy)-, C6H14O, purity 99%
Compound 3: methyl isopropyl ketone, C5H10O, purity 98.5%

System: 2,3-dimethylbutane; phases: Liquid
Fixed: Pressure, kPa = 101.325
Property: Mass density, kg/m3 (Liquid); method: Vibrating tube method
Temperature, K	Mass density, kg/m3	uncertainty
298.15	657.1	

System: 2,3-dimethylbutane; phases: Liquid
Fixed: Pressure, kPa = 101.325
Property: Refractive index (Na D-line) (Liquid); method: Standard Abbe refractometry
Temperature, K	Refractive index (Na D-line)	uncertainty
298.15	1.37237	

System: 2,3-dimethylbutane; phases: Liquid, Gas
Property: Vapor or sublimation pressure, kPa (Liquid); method: Ebulliometric method (Recirculating still)
Temperature, K	Vapor or sublimation pressure, kPa	uncertainty
313.15	55.13	.05513
323.15	78.12	.07812
333.15	107.99	.10799

System: ethane, 1-methyl-1-(1-methylethoxy)-; phases: Liquid
Fixed: Pressure, kPa = 101.325
Property: Mass density, kg/m3 (Liquid); method: Vibrating tube method
Temperature, K	Mass density, kg/m3	uncertainty
298.15	718.23	

System: ethane, 1-methyl-1-(1-methylethoxy)-; phases: Liquid
Fixed: Pressure, kPa = 101.325
Property: Refractive index (Na D-line) (Liquid); method: Standard Abbe refractometry
Temperature, K	Refractive index (Na D-line)	uncertainty
298.15	1.3655	

System: ethane, 1-methyl-1-(1-methylethoxy)-; phases: Liquid, Gas
Property: Vapor or sublimation pressure, kPa (Liquid); method: Ebulliometric method (Recirculating still)
Temperature, K	Vapor or sublimation pressure, kPa	uncertainty
313.15	37.09	.03709
323.15	54.14	.05414
333.15	76.9	.0769

System: methyl isopropyl ketone; phases: Liquid
Fixed: Pressure, kPa = 101.325
Property: Mass density, kg/m3 (Liquid); method: Vibrating tube method
Temperature, K	Mass density, kg/m3	uncertainty
298.15	799.55	

System: methyl isopropyl ketone; phases: Liquid
Fixed: Pressure, kPa = 101.325
Property: Refractive index (Na D-line) (Liquid); method: Standard Abbe refractometry
Temperature, K	Refractive index (Na D-line)	uncertainty
298.15	1.38568	

System: methyl isopropyl ketone; phases: Liquid, Gas
Property: Vapor or sublimation pressure, kPa (Liquid); method: Ebulliometric method (Recirculating still)
Temperature, K	Vapor or sublimation pressure, kPa	uncertainty
313.15	13.73	.01373
323.15	21.09	.02109
333.15	31.43	.03143

System: 2,3-dimethylbutane + ethane, 1-methyl-1-(1-methylethoxy)-; phases: Gas, Liquid
Property: Mole fraction of 2,3-dimethylbutane (Gas); method: Chromatography
Mole fraction of 2,3-dimethylbutane	Temperature, K	Mole fraction of 2,3-dimethylbutane	uncertainty
0	313.15	0	.001
.135	313.15	.1989	.001
.2075	313.15	.2918	.001
.3131	313.15	.413	.001
.4443	313.15	.5412	.001
.5888	313.15	.6759	.001
.6669	313.15	.7412	.001
.7336	313.15	.7965	.001
.788	313.15	.8397	.001
.8447	313.15	.8837	.001
.9017	313.15	.927	.001
.9486	313.15	.9622	.001
.9862	313.15	.99	.001
1	313.15	1	.001
0	323.15	0	.001
.1355	323.15	.1938	.001
.2095	323.15	.2866	.001
.3163	323.15	.4077	.001
.4506	323.15	.541	.001
.5882	323.15	.6701	.001
.6689	323.15	.7379	.001
.7336	323.15	.7915	.001
.79	323.15	.8369	.001
.845	323.15	.8807	.001
.9017	323.15	.9252	.001
.9486	323.15	.9611	.001
.9863	323.15	.9897	.001
1	323.15	1	.001
0	333.15	0	.001
.2116	333.15	.2823	.001
.3174	333.15	.402	.001
.4518	333.15	.5346	.001
.5898	333.15	.6648	.001
.6702	333.15	.734	.001
.7343	333.15	.7876	.001
.7893	333.15	.834	.001
.8455	333.15	.8778	.001
.9027	333.15	.9238	.001
.9484	333.15	.9601	.001
.9863	333.15	.9894	.001
1	333.15	1	.001

System: 2,3-dimethylbutane + ethane, 1-methyl-1-(1-methylethoxy)-; phases: Liquid, Gas
Property: Vapor or sublimation pressure, kPa (Liquid); method: Ebulliometric method (Recirculating still)
Mole fraction of 2,3-dimethylbutane	Temperature, K	Vapor or sublimation pressure, kPa	uncertainty
0	313.15	37.09	.03709
.135	313.15	39.99	.03999
.2075	313.15	41.46	.04146
.3131	313.15	43.65	.04365
.4443	313.15	46.14	.04614
.5888	313.15	48.73	.04873
.6669	313.15	50.05	.05005
.7336	313.15	51.14	.05114
.788	313.15	51.98	.05198
.8447	313.15	52.85	.05285
.9017	313.15	53.69	.05369
.9486	313.15	54.37	.05437
.9862	313.15	54.91	.05491
1	313.15	55.13	.05513
0	323.15	54.14	.05414
.1355	323.15	58.06	.05806
.2095	323.15	60.03	.06003
.3163	323.15	62.89	.06289
.4506	323.15	66.23	.06623
.5882	323.15	69.54	.06954
.6689	323.15	71.36	.07136
.7336	323.15	72.76	.07276
.79	323.15	73.92	.07392
.845	323.15	75.04	.07504
.9017	323.15	76.17	.07617
.9486	323.15	77.04	.07704
.9863	323.15	77.8	.0778
1	323.15	78.12	.07812
0	333.15	76.9	.0769
.2116	333.15	84.58	.08458
.3174	333.15	88.3	.0883
.4518	333.15	92.59	.09259
.5898	333.15	96.92	.09692
.6702	333.15	99.25	.09925
.7343	333.15	101.04	.10104
.7893	333.15	102.57	.10257
.8455	333.15	103.98	.10398
.9027	333.15	105.47	.10547
.9484	333.15	106.61	.10661
.9863	333.15	107.57	.10757
1	333.15	107.99	.10799

System: 2,3-dimethylbutane + methyl isopropyl ketone; phases: Gas, Liquid
Property: Mole fraction of 2,3-dimethylbutane (Gas); method: Chromatography
Mole fraction of 2,3-dimethylbutane	Temperature, K	Mole fraction of 2,3-dimethylbutane	uncertainty
0	313.15	0	.001
.0029	313.15	.0277	.001
.0088	313.15	.075	.001
.0183	313.15	.1532	.001
.0394	313.15	.2707	.001
.0754	313.15	.421	.001
.0994	313.15	.4829	.001
.1532	313.15	.5799	.001
.1874	313.15	.633	.001
.2557	313.15	.6905	.001
.3536	313.15	.7503	.001
.4424	313.15	.7883	.001
.5504	313.15	.8224	.001
.652	313.15	.8533	.001
.7417	313.15	.8812	.001
.8256	313.15	.9089	.001
.8893	313.15	.9341	.001
1	313.15	1	.001
0	323.15	0	.001
.0036	323.15	.0309	.001
.0096	323.15	.0778	.001
.0206	323.15	.1506	.001
.0436	323.15	.2749	.001
.0756	323.15	.3926	.001
.1106	323.15	.4756	.001
.1516	323.15	.5551	.001
.2033	323.15	.6222	.001
.2472	323.15	.6652	.001
.3471	323.15	.7304	.001
.4395	323.15	.7726	.001
.5455	323.15	.8102	.001
.6576	323.15	.8457	.001
.7431	323.15	.8728	.001
.826	323.15	.9038	.001
.8883	323.15	.9317	.001
1	323.15	1	.001
0	333.15	0	.001
.0111	333.15	.0797	.001
.0224	333.15	.1504	.001
.0475	333.15	.27	.001
.0765	333.15	.3713	.001
.1114	333.15	.4588	.001
.1496	333.15	.5273	.001
.2079	333.15	.6016	.001
.2544	333.15	.6451	.001
.3472	333.15	.707	.001
.4413	333.15	.7525	.001
.5484	333.15	.7988	.001
.6592	333.15	.8354	.001
.744	333.15	.8652	.001
.8256	333.15	.8974	.001
.8895	333.15	.9286	.001
1	333.15	1	.001

System: 2,3-dimethylbutane + methyl isopropyl ketone; phases: Liquid, Gas
Property: Vapor or sublimation pressure, kPa (Liquid); method: Ebulliometric method (Recirculating still)
Mole fraction of 2,3-dimethylbutane	Temperature, K	Vapor or sublimation pressure, kPa	uncertainty
0	313.15	13.73	.01373
.0029	313.15	14.11	.01411
.0088	313.15	14.79	.01479
.0183	313.15	16.07	.01607
.0394	313.15	18.46	.01846
.0754	313.15	22.21	.02221
.0994	313.15	24.56	.02456
.1532	313.15	28.87	.02887
.1874	313.15	31.62	.03162
.2557	313.15	35.44	.03544
.3536	313.15	40.04	.04004
.4424	313.15	43.45	.04345
.5504	313.15	46.61	.04661
.652	313.15	49.3	.0493
.7417	313.15	51.1	.0511
.8256	313.15	52.67	.05267
.8893	313.15	53.77	.05377
1	313.15	55.13	.05513
0	323.15	21.09	.02109
.0036	323.15	21.73	.02173
.0096	323.15	22.78	.02278
.0206	323.15	24.59	.02459
.0436	323.15	28.09	.02809
.0756	323.15	32.51	.03251
.1106	323.15	36.56	.03656
.1516	323.15	41.42	.04142
.2033	323.15	46.54	.04654
.2472	323.15	50.4	.0504
.3471	323.15	56.82	.05682
.4395	323.15	61.56	.06156
.5455	323.15	66.15	.06615
.6576	323.15	70.02	.07002
.7431	323.15	72.54	.07254
.826	323.15	74.73	.07473
.8883	323.15	76.22	.07622
1	323.15	78.12	.07812
0	333.15	31.43	.03143
.0111	333.15	33.93	.03393
.0224	333.15	36.47	.03647
.0475	333.15	41.44	.04144
.0765	333.15	46.57	.04657
.1114	333.15	52.74	.05274
.1496	333.15	58.13	.05813
.2079	333.15	65.98	.06598
.2544	333.15	70.2	.0702
.3472	333.15	78.83	.07883
.4413	333.15	85.42	.08542
.5484	333.15	91.68	.09168
.6592	333.15	97.08	.09708
.744	333.15	100.49	.10049
.8256	333.15	103.47	.10347
.8895	333.15	105.46	.10546
1	333.15	107.99	.10799

System: ethane, 1-methyl-1-(1-methylethoxy)- + methyl isopropyl ketone; phases: Gas, Liquid
Property: Mole fraction of ethane, 1-methyl-1-(1-methylethoxy)- (Gas); method: Chromatography
Mole fraction of ethane, 1-methyl-1-(1-methylethoxy)-	Temperature, K	Mole fraction of ethane, 1-methyl-1-(1-methylethoxy)-	uncertainty
0	313.15	0	.001
.03	313.15	.1096	.001
.0593	313.15	.191	.001
.1143	313.15	.3315	.001
.2171	313.15	.4937	.001
.3526	313.15	.6284	.001
.493	313.15	.7271	.001
.6188	313.15	.795	.001
.7195	313.15	.8466	.001
.8324	313.15	.903	.001
.9289	313.15	.9555	.001
.9759	313.15	.9818	.001
1	313.15	1	.001
0	323.15	0	.001
.0329	323.15	.1117	.001
.0596	323.15	.1929	.001
.1153	323.15	.3188	.001
.2213	323.15	.4859	.001
.3581	323.15	.62	.001
.4965	323.15	.7176	.001
.621	323.15	.7884	.001
.7184	323.15	.8399	.001
.8323	323.15	.8924	.001
.929	323.15	.9544	.001
.9757	323.15	.9839	.001
1	323.15	1	.001
0	333.15	0	.001
.0327	333.15	.11	.001
.0624	333.15	.191	.001
.1159	333.15	.3083	.001
.2291	333.15	.4776	.001
.3638	333.15	.6106	.001
.5032	333.15	.7097	.001
.6253	333.15	.7805	.001
.718	333.15	.8331	.001
.8344	333.15	.8979	.001
.9303	333.15	.9537	.001
.9768	333.15	.9833	.001
1	333.15	1	.001

System: ethane, 1-methyl-1-(1-methylethoxy)- + methyl isopropyl ketone; phases: Liquid, Gas
Property: Vapor or sublimation pressure, kPa (Liquid); method: Ebulliometric method (Recirculating still)
Mole fraction of ethane, 1-methyl-1-(1-methylethoxy)-	Temperature, K	Vapor or sublimation pressure, kPa	uncertainty
0	313.15	13.73	.01373
.03	313.15	14.94	.01494
.0593	313.15	16.11	.01611
.1143	313.15	18.36	.01836
.2171	313.15	21.83	.02183
.3526	313.15	25.58	.02558
.493	313.15	28.8	.0288
.6188	313.15	31.17	.03117
.7195	313.15	32.99	.03299
.8324	313.15	34.79	.03479
.9289	313.15	36.21	.03621
.9759	313.15	36.75	.03675
1	313.15	37.09	.03709
0	323.15	21.09	.02109
.0329	323.15	22.92	.02292
.0596	323.15	24.59	.02459
.1153	323.15	27.63	.02763
.2213	323.15	32.75	.03275
.3581	323.15	38.04	.03804
.4965	323.15	42.54	.04254
.621	323.15	45.98	.04598
.7184	323.15	48.38	.04838
.8323	323.15	50.84	.05084
.929	323.15	52.91	.05291
.9757	323.15	53.76	.05376
1	323.15	54.14	.05414
0	333.15	31.43	.03143
.0327	333.15	34	.034
.0624	333.15	36.4	.0364
.1159	333.15	40.39	.04039
.2291	333.15	47.71	.04771
.3638	333.15	54.93	.05493
.5032	333.15	61.15	.06115
.6253	333.15	65.86	.06586
.718	333.15	69.03	.06903
.8344	333.15	72.67	.07267
.9303	333.15	75.28	.07528
.9768	333.15	76.41	.07641
1	333.15	76.9	.0769

System: 2,3-dimethylbutane + ethane, 1-methyl-1-(1-methylethoxy)- + methyl isopropyl ketone; phases: Liquid, Gas
Property: Mole fraction of ethane, 1-methyl-1-(1-methylethoxy)- (Liquid); method: Chromatography
Property: Mole fraction of 2,3-dimethylbutane (Gas); method: Chromatography
Property: Mole fraction of ethane, 1-methyl-1-(1-methylethoxy)- (Gas); method: Chromatography
Temperature, K	Pressure, kPa	Mole fraction of 2,3-dimethylbutane	Mole fraction of ethane, 1-methyl-1-(1-methylethoxy)-	uncertainty	Mole fraction of 2,3-dimethylbutane	uncertainty	Mole fraction of ethane, 1-methyl-1-(1-methylethoxy)-	uncertainty
313.15	41.56	.3839	.0516	.001	.7274	.001	.051	.001
313.15	38.49	.1351	.6934	.001	.2273	.001	.6793	.001
313.15	38.33	.1101	.7576	.001	.1825	.001	.7426	.001
313.15	38.19	.0897	.808	.001	.1478	.001	.7924	.001
313.15	38.02	.0709	.8531	.001	.1154	.001	.839	.001
313.15	37.87	.0539	.8923	.001	.0871	.001	.8801	.001
313.15	25.08	.0946	.0369	.001	.4386	.001	.0759	.001
313.15	26.44	.0934	.094	.001	.3842	.001	.1776	.001
313.15	27.52	.0875	.1485	.001	.3357	.001	.2629	.001
313.15	28.9	.0843	.2241	.001	.2875	.001	.3616	.001
313.15	30.47	.0826	.318	.001	.2413	.001	.461	.001
313.15	40.93	.3522	.1235	.001	.6673	.001	.1224	.001
313.15	32	.0756	.4246	.001	.1933	.001	.5588	.001
313.15	33.16	.0685	.5153	.001	.1584	.001	.6332	.001
313.15	34.03	.0595	.5953	.001	.129	.001	.6952	.001
313.15	50.71	.7218	.0551	.001	.8527	.001	.0404	.001
313.15	49.51	.6533	.1452	.001	.7911	.001	.1096	.001
313.15	48.56	.6013	.2125	.001	.7432	.001	.1629	.001
313.15	47.1	.5196	.3182	.001	.6656	.001	.2511	.001
313.15	45.55	.4328	.4347	.001	.5726	.001	.3565	.001
313.15	44.11	.3528	.5412	.001	.4834	.001	.4573	.001
323.15	59.11	.3782	.0514	.001	.7093	.001	.0521	.001
313.15	40.43	.3224	.1988	.001	.603	.001	.1968	.001
323.15	58.38	.3509	.1235	.001	.6488	.001	.124	.001
323.15	57.93	.3241	.1978	.001	.5873	.001	.1992	.001
323.15	57.5	.2993	.2599	.001	.5349	.001	.2624	.001
323.15	57.03	.2697	.3275	.001	.4783	.001	.3291	.001
323.15	56.78	.2432	.4055	.001	.4211	.001	.4061	.001
323.15	56.56	.2168	.4804	.001	.3703	.001	.4771	.001
323.15	56.37	.1929	.5479	.001	.3185	.001	.5418	.001
323.15	56.16	.1663	.6186	.001	.2725	.001	.6099	.001
323.15	55.86	.1355	.693	.001	.2198	.001	.6822	.001
323.15	55.7	.1112	.758	.001	.1765	.001	.7455	.001
313.15	40.06	.2995	.2613	.001	.5501	.001	.2606	.001
323.15	55.52	.0908	.8074	.001	.1436	.001	.7942	.001
323.15	55.34	.0713	.8538	.001	.1116	.001	.8411	.001
323.15	55.16	.0539	.8925	.001	.0846	.001	.8811	.001
323.15	36.6	.0943	.0364	.001	.4143	.001	.0747	.001
323.15	38.57	.0939	.0939	.001	.3667	.001	.1754	.001
323.15	40.15	.0904	.1488	.001	.3225	.001	.2593	.001
323.15	40.01	.0903	.1484	.001	.32	.001	.2596	.001
323.15	42.17	.0867	.2242	.001	.2756	.001	.3573	.001
323.15	44.4	.083	.3166	.001	.2295	.001	.4559	.001
323.15	46.68	.076	.4237	.001	.1851	.001	.5543	.001
313.15	39.66	.269	.3297	.001	.4946	.001	.3272	.001
323.15	48.42	.0689	.5158	.001	.1518	.001	.6295	.001
323.15	49.69	.0602	.5974	.001	.123	.001	.6918	.001
323.15	72.04	.7217	.055	.001	.8457	.001	.0413	.001
323.15	70.42	.6513	.1456	.001	.7799	.001	.1126	.001
323.15	69.19	.6005	.2125	.001	.7345	.001	.1666	.001
323.15	67.34	.5222	.3175	.001	.6548	.001	.2577	.001
323.15	65.25	.4344	.434	.001	.5634	.001	.3619	.001
323.15	63.38	.3561	.5391	.001	.4718	.001	.465	.001
333.15	82.18	.3798	.0512	.001	.6917	.001	.053	.001
333.15	81.38	.3533	.1228	.001	.6312	.001	.1259	.001
313.15	39.38	.2442	.4058	.001	.4357	.001	.4018	.001
333.15	80.94	.3242	.1977	.001	.5708	.001	.2013	.001
333.15	80.55	.3004	.2592	.001	.5222	.001	.2642	.001
333.15	80	.2704	.3269	.001	.4645	.001	.3336	.001
333.15	79.82	.2347	.4067	.001	.4068	.001	.4104	.001
333.15	79.64	.2186	.4798	.001	.3593	.001	.4797	.001
333.15	79.44	.1939	.547	.001	.3123	.001	.544	.001
333.15	79.28	.1674	.617	.001	.2646	.001	.6123	.001
333.15	78.97	.1369	.6927	.001	.212	.001	.6834	.001
333.15	78.81	.1123	.7567	.001	.1726	.001	.7462	.001
333.15	78.64	.0913	.8071	.001	.1391	.001	.7967	.001
313.15	39.16	.2153	.4816	.001	.3799	.001	.4743	.001
333.15	78.42	.0722	.8519	.001	.1088	.001	.8414	.001
333.15	78.18	.0545	.892	.001	.0821	.001	.8826	.001
333.15	52.02	.0967	.0363	.001	.395	.001	.0733	.001
333.15	54.66	.0943	.0931	.001	.3439	.001	.1728	.001
333.15	56.85	.0902	.1466	.001	.307	.001	.255	.001
333.15	59.94	.0859	.2228	.001	.2612	.001	.3528	.001
333.15	63.09	.083	.3158	.001	.2179	.001	.4501	.001
333.15	68.83	.0693	.5153	.001	.1457	.001	.6261	.001
333.15	70.63	.0604	.5953	.001	.1184	.001	.6898	.001
333.15	99.88	.7207	.0545	.001	.8389	.001	.0423	.001
313.15	38.92	.1911	.5453	.001	.331	.001	.5376	.001
333.15	97.79	.6529	.1449	.001	.7733	.001	.1148	.001
333.15	96.36	.6019	.2116	.001	.7268	.001	.1693	.001
333.15	93.84	.5216	.318	.001	.6456	.001	.2621	.001
333.15	91.21	.4341	.4325	.001	.5534	.001	.3672	.001
333.15	88.81	.356	.5384	.001	.4648	.001	.4703	.001
313.15	38.74	.1655	.6179	.001	.2818	.001	.6058	.001
