Measured thermophysical data. Density, viscosity and solubility of carbon dioxide in glymes
Source: Fluid Phase Equilib., 2011, 10.1016/j.fluid.2010.08.014
Compound 1: carbon dioxide, CO2, purity 99.999%
Compound 2: pentadecane, C15H32, purity 99%
Compound 3: 2,5,8-trioxanonane, C6H14O3, purity 99%
Compound 4: 2,5,8,11-tetraoxadodecane, C8H18O4, purity 99%
Compound 5: 2,5,8,11,14-pentaoxapentadecane, C10H22O5, purity 99%

System: 2,5,8-trioxanonane; phases: Liquid
Fixed: Pressure, kPa = 101.325
Property: Mass density, kg/m3 (Liquid); method: Vibrating tube method
Temperature, K	Mass density, kg/m3	uncertainty
273.15	964.32	.05
278.15	959.4	.05
283.15	954.46	.05
288.15	949.53	.05
293.15	944.58	.05
298.15	939.61	.05
303.15	934.64	.05
313.15	924.65	.05
323.15	914.61	.05
333.15	904.49	.05
343.15	894.28	.05
353.15	883.97	.05
363.15	873.5	.05

System: 2,5,8-trioxanonane; phases: Liquid
Fixed: Pressure, kPa = 101.325
Property: Viscosity, Pa*s (Liquid); method: Concentric cylinders viscometry
Temperature, K	Viscosity, Pa*s	uncertainty
273.15	.00152	.0000456
278.15	.00138	.0000414
283.15	.00126	.0000378
288.15	.00114	.0000342
293.15	.00106	.0000318
298.15	.000976	.00002928
303.15	.000901	.00002703
313.15	.000777	.00002331
323.15	.000676	.00002028
333.15	.000592	.00001776
343.15	.000522	.00001566
353.15	.000464	.00001392
363.15	.000412	.00001236

System: 2,5,8,11-tetraoxadodecane; phases: Liquid
Fixed: Pressure, kPa = 101.325
Property: Mass density, kg/m3 (Liquid); method: Vibrating tube method
Temperature, K	Mass density, kg/m3	uncertainty
273.15	1003.99	.05
278.15	999.23	.05
283.15	994.48	.05
288.15	989.74	.05
293.15	984.98	.05
298.15	980.23	.05
303.15	975.48	.05
313.15	965.97	.05
323.15	956.44	.05
333.15	946.89	.05
343.15	937.3	.05
353.15	927.69	.05
363.15	918.02	.05

System: 2,5,8,11-tetraoxadodecane; phases: Liquid
Fixed: Pressure, kPa = 101.325
Property: Viscosity, Pa*s (Liquid); method: Concentric cylinders viscometry
Temperature, K	Viscosity, Pa*s	uncertainty
273.15	.00356	.0001068
278.15	.0031	.000093
283.15	.00275	.0000825
288.15	.00245	.0000735
293.15	.00219	.0000657
298.15	.00196	.0000588
303.15	.00178	.0000534
313.15	.00148	.0000444
323.15	.00125	.0000375
333.15	.00108	.0000324
343.15	.000936	.00002808
353.15	.000821	.00002463
363.15	.000726	.00002178

System: 2,5,8,11,14-pentaoxapentadecane; phases: Liquid
Fixed: Pressure, kPa = 101.325
Property: Mass density, kg/m3 (Liquid); method: Vibrating tube method
Temperature, K	Mass density, kg/m3	uncertainty
273.15	1030.62	.05
278.15	1025.97	.05
283.15	1021.33	.05
288.15	1016.7	.05
293.15	1012.06	.05
298.15	1007.43	.05
303.15	1002.81	.05
313.15	993.56	.05
323.15	984.32	.05
333.15	975.07	.05
343.15	965.81	.05
353.15	956.53	.05
363.15	947.22	.05

System: 2,5,8,11,14-pentaoxapentadecane; phases: Liquid
Fixed: Pressure, kPa = 101.325
Property: Viscosity, Pa*s (Liquid); method: Concentric cylinders viscometry
Temperature, K	Viscosity, Pa*s	uncertainty
273.15	.00698	.0002094
278.15	.00591	.0001773
283.15	.00506	.0001518
288.15	.00437	.0001311
293.15	.00384	.0001152
298.15	.0034	.000102
303.15	.00299	.0000897
313.15	.00245	.0000735
323.15	.00202	.0000606
333.15	.0017	.000051
343.15	.00145	.0000435
353.15	.00126	.0000378
363.15	.0011	.000033

System: carbon dioxide + pentadecane; phases: Gas, Liquid
Fixed: Temperature, K = 313.15
Property: Mole fraction of carbon dioxide (Gas); method: Mass Balance
Pressure, kPa	Mole fraction of carbon dioxide	uncertainty
2902	.2934	.0005
3313	.3302	.0005
5478	.5099	.0005
6069	.5561	.0005
6800	.6127	.0005

System: carbon dioxide + pentadecane; phases: Liquid, Gas
Fixed: Temperature, K = 313.15
Property: Mass density, kg/m3 (Liquid); method: Vibrating tube method
Pressure, kPa	Mass density, kg/m3	uncertainty
2902	764.6	.05
3313	766.2	.05
5478	776.2	.05
6069	779.4	.05
6800	783.7	.05

System: 2,5,8-trioxanonane + carbon dioxide; phases: Gas, Liquid
Fixed: Temperature, K = 313.15
Property: Mole fraction of carbon dioxide (Gas); method: Mass Balance
Pressure, kPa	Mole fraction of carbon dioxide	uncertainty
1195	.1907	.0005
1294	.2071	.0005
1420	.2257	.0005
1764	.2751	.0005
1900	.2944	.0005
2061	.3164	.0005
3063	.4384	.0005
3265	.4619	.0005
3495	.4875	.0005
4491	.586	.0005
4791	.619	.0005
5124	.6535	.0005
5392	.6804	.0005
5668	.7091	.0005
5954	.7384	.0005
6354	.7677	.0005
6651	.8013	.0005
7126	.8574	.0005

System: 2,5,8-trioxanonane + carbon dioxide; phases: Liquid, Gas
Fixed: Temperature, K = 313.15
Property: Mass density, kg/m3 (Liquid); method: Vibrating tube method
Pressure, kPa	Mass density, kg/m3	uncertainty
1195	928.6	.05
1294	929	.05
1420	929.5	.05
1764	931.3	.05
1900	931.8	.05
2061	932.4	.05
3063	935	.05
3265	935.3	.05
3495	935.5	.05
4491	934	.05
4791	932.8	.05
5124	930.6	.05
5392	928.2	.05
5668	924.7	.05
5954	920.1	.05
6354	909.3	.05
6651	900.2	.05
7126	871.3	.05

System: 2,5,8-trioxanonane + carbon dioxide; phases: Gas, Liquid
Fixed: Temperature, K = 313.15
Property: Mass density, kg/m3 (Gas); method: Vibrating tube method
Pressure, kPa	Mass density, kg/m3	uncertainty
1195	21.7	.05
1294	23.6	.05
1420	26	.05
1764	32.8	.05
1900	35.6	.05
2061	38.9	.05
3063	61.1	.05
3265	66.1	.05
3495	72.2	.05
4491	98.4	.05
4791	107.4	.05
5124	118.1	.05
5392	127.4	.05
5668	137.8	.05
5954	149.4	.05
6354	167.1	.05
6651	182.1	.05
7126	213.5	.05

System: 2,5,8,11-tetraoxadodecane + carbon dioxide; phases: Gas, Liquid
Fixed: Temperature, K = 313.15
Property: Mole fraction of carbon dioxide (Gas); method: Mass Balance
Pressure, kPa	Mole fraction of carbon dioxide	uncertainty
1503	.2452	.0005
1883	.2992	.0005
3099	.4446	.0005
3399	.4763	.0005
3760	.5127	.0005
4807	.6167	.0005
5165	.6519	.0005
5578	.6879	.0005
5891	.7132	.0005
6299	.7486	.0005
6846	.7919	.0005
7202	.827	.0005

System: 2,5,8,11-tetraoxadodecane + carbon dioxide; phases: Liquid, Gas
Fixed: Temperature, K = 313.15
Property: Mass density, kg/m3 (Liquid); method: Vibrating tube method
Pressure, kPa	Mass density, kg/m3	uncertainty
1503	969.8	.05
1883	970.7	.05
3099	972.2	.05
3399	972.3	.05
3760	972.3	.05
4807	970.2	.05
5165	968.6	.05
5578	965.7	.05
5891	962.9	.05
6299	957.5	.05
6846	945.2	.05
7202	932.3	.05

System: 2,5,8,11-tetraoxadodecane + carbon dioxide; phases: Gas, Liquid
Fixed: Temperature, K = 313.15
Property: Mass density, kg/m3 (Gas); method: Vibrating tube method
Pressure, kPa	Mass density, kg/m3	uncertainty
1503	27.3	.05
1883	34.8	.05
3099	60.7	.05
3399	67.9	.05
3760	77.1	.05
4807	106.9	.05
5165	118.3	.05
5578	133.1	.05
5891	145.2	.05
6299	162.9	.05
6846	189.7	.05
7202	211.7	.05

System: carbon dioxide + 2,5,8,11,14-pentaoxapentadecane; phases: Gas, Liquid
Fixed: Temperature, K = 313.15
Property: Mole fraction of carbon dioxide (Gas); method: Mass Balance
Pressure, kPa	Mole fraction of carbon dioxide	uncertainty
1459	.2623	.0005
1561	.2713	.0005
1617	.2859	.0005
1815	.3142	.0005
1984	.33	.0005
3174	.476	.0005
3501	.5095	.0005
3903	.5476	.0005
5029	.6463	.0005
5434	.6806	.0005
5912	.7178	.0005
6478	.7509	.0005
6873	.7871	.0005
7316	.8216	.0005

System: carbon dioxide + 2,5,8,11,14-pentaoxapentadecane; phases: Liquid, Gas
Fixed: Temperature, K = 313.15
Property: Mass density, kg/m3 (Liquid); method: Vibrating tube method
Pressure, kPa	Mass density, kg/m3	uncertainty
1459	995.1	.05
1561	994.6	.05
1617	995.3	.05
1815	995.6	.05
1984	995.3	.05
3174	996.4	.05
3501	996.5	.05
3903	996.2	.05
5029	993.7	.05
5434	991.9	.05
5912	988.8	.05
6478	981.1	.05
6873	977.2	.05
7316	966.9	.05

System: carbon dioxide + 2,5,8,11,14-pentaoxapentadecane; phases: Gas, Liquid
Fixed: Temperature, K = 313.15
Property: Mass density, kg/m3 (Gas); method: Vibrating tube method
Pressure, kPa	Mass density, kg/m3	uncertainty
1459	26.3	.05
1561	28.1	.05
1617	29.3	.05
1815	33.2	.05
1984	36.6	.05
3174	62.2	.05
3501	70.1	.05
3903	80.5	.05
5029	113.7	.05
5434	127.9	.05
5912	146.1	.05
6478	170.6	.05
6873	191.2	.05
7316	219.1	.05
