Measured thermophysical data. Thermodynamic properties of d-glucose in aqueous 1-hexyl-3-methylimidazolium bromide solutions at 298.15 K
Source: Fluid Phase Equilib., 2012, 10.1016/j.fluid.2012.08.024
Compound 1: D-glucose, C6H12O6, purity 99.6%
Compound 2: 3-hexyl-1-methyl-1H-imidazolium bromide, C10H19BrN2
Compound 3: water, H2O

System: D-glucose + water + 3-hexyl-1-methyl-1H-imidazolium bromide; phases: Liquid
Fixed: Pressure, kPa = 101
Fixed: Temperature, K = 298.15
Property: Mass density, kg/m3 (Liquid); method: Vibrating tube method
Molality, mol/kg of D-glucose	Solvent: Molality, mol/kg of 3-hexyl-1-methyl-1H-imidazolium bromide	Mass density, kg/m3	uncertainty
0	0	997.04	.03
.0104	0	997.75	.03
.03	0	999.09	.03
.05	0	1000.45	.03
.0705	0	1001.83	.03
.0899	0	1003.13	.03
.1102	0	1004.48	.03
0	.1017	1001.8	.03
.0098	.1017	1002.46	.03
.0194	.1017	1003.11	.03
.0296	.1017	1003.79	.03
.0392	.1017	1004.44	.03
.049	.1017	1005.09	.03
.0604	.1017	1005.86	.03
.0692	.1017	1006.45	.03
.0765	.1017	1006.94	.03
0	.2038	1006.13	.03
.0099	.2038	1006.79	.03
.0194	.2038	1007.42	.03
.0293	.2038	1008.09	.03
.0404	.2038	1008.83	.03
.0488	.2038	1009.39	.03
.0597	.2038	1010.12	.03
.0697	.2038	1010.79	.03
.0806	.2038	1011.53	.03
0	.3005	1010.26	.03
.0094	.3005	1010.88	.03
.0195	.3005	1011.54	.03
.0287	.3005	1012.15	.03
.0408	.3005	1012.95	.03
.0493	.3005	1013.51	.03
.0592	.3005	1014.17	.03
.0711	.3005	1014.97	.03
.0795	.3005	1015.53	.03
0	.4033	1014.58	.03
.0096	.4033	1015.2	.03
.0195	.4033	1015.85	.03
.0293	.4033	1016.49	.03
.0399	.4033	1017.18	.03
.049	.4033	1017.77	.03
.0596	.4033	1018.47	.03
.0692	.4033	1019.1	.03
.0787	.4033	1019.72	.03

System: D-glucose + water + 3-hexyl-1-methyl-1H-imidazolium bromide; phases: Liquid
Fixed: Pressure, kPa = 101
Fixed: Temperature, K = 298.15
Property: Molar conductivity, S*m2/mol (Liquid); method: Alternating current cell with electrodes
Molality, mol/kg of 3-hexyl-1-methyl-1H-imidazolium bromide	Solvent: Molality, mol/kg of D-glucose	Molar conductivity, S*m2/mol	uncertainty
.3716	0	.011687	.000021
.9047	0	.011485	.000021
1.2682	0	.011341	.000021
1.963	0	.011174	.000021
2.5123	0	.010991	.000021
3.1019	0	.010854	.000021
3.7078	0	.010723	.000021
4.2733	0	.010552	.000021
4.9437	0	.010444	.000021
5.5496	0	.010339	.000021
.5177	.2055	.009834	.000021
1.2781	.2055	.009717	.000021
1.9091	.2055	.009631	.000021
2.4106	.2055	.009536	.000021
2.896	.2055	.009472	.000021
3.3732	.2055	.009408	.000021
4.0285	.2055	.009344	.000021
4.6028	.2055	.009286	.000021
5.161	.2055	.009215	.000021
5.6382	.2055	.009176	.000021
.461	.4998	.008434	.000021
.9706	.4998	.008391	.000021
1.5529	.4998	.008292	.000021
2.1353	.4998	.008229	.000021
2.8147	.4998	.008162	.000021
3.4375	.4998	.008094	.000021
4.0765	.4998	.00796	.000021
4.7235	.4998	.007949	.000021
5.3221	.4998	.007897	.000021
5.9287	.4998	.00784	.000021
.501	.7894	.007121	.000021
1.1151	.7894	.007081	.000021
1.7535	.7894	.007032	.000021
2.4241	.7894	.006971	.000021
3.0544	.7894	.006928	.000021
3.7251	.7894	.006896	.000021
4.3715	.7894	.006849	.000021
5.0261	.7894	.006817	.000021
5.5917	.7894	.006775	.000021
6.1896	.7894	.006738	.000021
.6472	1	.006351	.000021
1.2297	1	.006306	.000021
1.7798	1	.006281	.000021
2.427	1	.006253	.000021
3.05	1	.006228	.000021
3.6891	1	.006205	.000021
4.3686	1	.006176	.000021
4.9592	1	.006159	.000021
5.6711	1	.006139	.000021
6.4154	1	.006114	.000021

System: D-glucose + water + 3-hexyl-1-methyl-1H-imidazolium bromide; phases: Liquid
Fixed: Pressure, kPa = 101
Fixed: Temperature, K = 298.15
Property: Refractive index (Na D-line) (Liquid); method: Standard Abbe refractometry
Molality, mol/kg of D-glucose	Solvent: Molality, mol/kg of 3-hexyl-1-methyl-1H-imidazolium bromide	Refractive index (Na D-line)	uncertainty
.0104	0	1.3328	.0001
.03	0	1.3334	.0001
.05	0	1.3339	.0001
.0705	0	1.3343	.0001
.0899	0	1.3349	.0001
.1102	0	1.3352	.0001
.1301	0	1.3357	.0001
.1496	0	1.3361	.0001
.1691	0	1.3366	.0001
.0096	.1017	1.3365	.0001
.0196	.1017	1.3368	.0001
.0302	.1017	1.3372	.0001
.0397	.1017	1.3374	.0001
.0507	.1017	1.3377	.0001
.0599	.1017	1.338	.0001
.0697	.1017	1.3382	.0001
.079	.1017	1.3384	.0001
.0905	.1017	1.3387	.0001
.0099	.2038	1.3404	.0001
.0194	.2038	1.3406	.0001
.0293	.2038	1.3408	.0001
.0404	.2038	1.341	.0001
.0488	.2038	1.3412	.0001
.0597	.2038	1.3415	.0001
.0697	.2038	1.3417	.0001
.0806	.2038	1.3419	.0001
.0888	.2038	1.3422	.0001
.0094	.3005	1.344	.0001
.0195	.3005	1.3441	.0001
.0287	.3005	1.3443	.0001
.0408	.3005	1.3445	.0001
.0493	.3005	1.3446	.0001
.0592	.3005	1.3447	.0001
.0711	.3005	1.3449	.0001
.0795	.3005	1.3452	.0001
.0876	.3005	1.3455	.0001
.0096	.4033	1.3469	.0001
.0195	.4033	1.3473	.0001
.0293	.4033	1.3478	.0001
.0399	.4033	1.348	.0001
.049	.4033	1.3482	.0001
.0596	.4033	1.3484	.0001
.0692	.4033	1.3486	.0001
.0787	.4033	1.3488	.0001
.089	.4033	1.349	.0001
