Measured thermophysical data. Phase equilibrium and thermophysical properties of mixtures containing a cyclic ether and 1-chloropropane
Source: Fluid Phase Equilib., 2010, 10.1016/j.fluid.2010.04.017
Compound 1: tetrahydrofuran, C4H8O, purity 99.5%
Compound 2: 1-chloropropane, C3H7Cl, purity 99%
Compound 3: tetrahydropyran, C5H10O, purity 99%

System: tetrahydrofuran + 1-chloropropane; phases: Liquid
Fixed: Pressure, kPa = 101
Property: Mass density, kg/m3 (Liquid); method: Vibrating tube method
Temperature, K	Mole fraction of tetrahydrofuran	Mass density, kg/m3	uncertainty
283.15	0	902.42	.01
283.15	.0482	902.34	.01
283.15	.0951	902.3	.01
283.15	.2278	902.3	.01
283.15	.2856	902.25	.01
283.15	.3945	902.02	.01
283.15	.4915	901.73	.01
283.15	.5947	901.21	.01
283.15	.6896	900.63	.01
283.15	.7915	899.88	.01
283.15	.8936	899	.01
283.15	.9482	898.5	.01
283.15	1	898	.01
298.15	0	883.29	.01
298.15	.049	883.46	.01
298.15	.0949	883.63	.01
298.15	.2025	884	.01
298.15	.3057	884.24	.01
298.15	.4052	884.36	.01
298.15	.5073	884.31	.01
298.15	.6037	884.14	.01
298.15	.7043	883.79	.01
298.15	.8052	883.3	.01
298.15	.907	882.71	.01
298.15	.947	882.44	.01
298.15	1	882.05	.01
313.15	0	864.69	.01
313.15	.0463	864.94	.01
313.15	.0932	865.25	.01
313.15	.1931	865.84	.01
313.15	.2948	866.3	.01
313.15	.3935	866.63	.01
313.15	.4987	866.79	.01
313.15	.5945	866.81	.01
313.15	.702	866.65	.01
313.15	.7949	866.39	.01
313.15	.9145	865.88	.01
313.15	.9492	865.69	.01
313.15	1	865.36	.01

System: tetrahydrofuran + 1-chloropropane; phases: Liquid
Fixed: Pressure, kPa = 101
Property: Speed of sound, m/s (Liquid); method: Sing-around technique in a fixed-path interferometer
Temperature, K	Mole fraction of tetrahydrofuran	Speed of sound, m/s	uncertainty
283.15	0	1130.6	1
283.15	.0482	1140.5	1
283.15	.0951	1149.3	1
283.15	.2278	1175.5	1
283.15	.2856	1187.1	1
283.15	.3945	1209.5	1
283.15	.4915	1230.5	1
283.15	.5947	1253.3	1
283.15	.6896	1275.5	1
283.15	.7915	1299.5	1
283.15	.8936	1324.2	1
283.15	.9482	1337.4	1
283.15	1	1350.9	1
298.15	0	1065.5	1
298.15	.049	1075	1
298.15	.0949	1083.6	1
298.15	.2025	1104.4	1
298.15	.3057	1124.8	1
298.15	.4052	1145.3	1
298.15	.5073	1167.1	1
298.15	.6037	1188.2	1
298.15	.7043	1210.5	1
298.15	.8052	1233	1
298.15	.907	1256.7	1
298.15	.947	1265.8	1
298.15	1	1278.8	1
313.15	0	1000.5	1
313.15	.0463	1009.8	1
313.15	.0932	1018.8	1
313.15	.1931	1037.4	1
313.15	.2948	1057	1
313.15	.3935	1076.8	1
313.15	.4987	1098	1
313.15	.5945	1117.9	1
313.15	.702	1140.6	1
313.15	.7949	1160.4	1
313.15	.9145	1186.7	1
313.15	.9492	1194.9	1
313.15	1	1206.4	1

System: tetrahydrofuran + 1-chloropropane; phases: Liquid
Fixed: Pressure, kPa = 101
Property: Refractive index (Na D-line) (Liquid); method: Standard Abbe refractometry
Temperature, K	Mole fraction of tetrahydrofuran	Refractive index (Na D-line)	uncertainty
283.15	0	1.394311	.00002
283.15	.0446	1.395241	.00002
283.15	.0884	1.396163	.00002
283.15	.2139	1.398731	.00002
283.15	.2695	1.399837	.00002
283.15	.3754	1.401886	.00002
283.15	.4714	1.40368	.00002
283.15	.5751	1.405535	.00002
283.15	.6721	1.407227	.00002
283.15	.7779	1.408999	.00002
283.15	.8857	1.410774	.00002
283.15	.9441	1.411689	.00002
283.15	1	1.412562	.00002
298.15	0	1.385475	.00002
298.15	.0452	1.386478	.00002
298.15	.0879	1.387429	.00002
298.15	.1893	1.389643	.00002
298.15	.2882	1.391746	.00002
298.15	.3851	1.393718	.00002
298.15	.4863	1.395679	.00002
298.15	.5834	1.397508	.00002
298.15	.6865	1.39935	.00002
298.15	.7917	1.401172	.00002
298.15	.8997	1.403003	.00002
298.15	.9426	1.403705	.00002
298.15	1	1.404636	.00002
313.15	0	1.376447	.00002
313.15	.0426	1.377492	.00002
313.15	.0862	1.378505	.00002
313.15	.18	1.380672	.00002
313.15	.2772	1.382817	.00002
313.15	.3731	1.384872	.00002
313.15	.4772	1.387027	.00002
313.15	.5736	1.38895	.00002
313.15	.6836	1.391032	.00002
313.15	.7805	1.392777	.00002
313.15	.9075	1.395029	.00002
313.15	.9449	1.395642	.00002
313.15	1	1.396582	.00002

System: tetrahydrofuran + 1-chloropropane; phases: Liquid, Gas
Property: Vapor or sublimation pressure, kPa (Liquid); method: Closed cell (Static) method
Mole fraction of tetrahydrofuran	Temperature, K	Vapor or sublimation pressure, kPa	uncertainty
.0592	298.15	44.205	.0044205
.0985	298.15	43.125	.0043125
.191	298.15	40.76	.004076
.328	298.15	37.01	.003701
.4103	298.15	35.015	.0035015
.516	298.15	32.385	.0032385
.5903	298.15	30.59	.003059
.685	298.15	28.305	.0028305
.762	298.15	26.655	.0026655
.818	298.15	25.255	.0025255
.874	298.15	24.115	.0024115
.923	298.15	23.225	.0023225
.956	298.15	22.405	.0022405
.0592	313.15	77.945	.0077945
.0985	313.15	76.285	.0076285
.192	313.15	72	.0072
.317	313.15	66.665	.0066665
.4103	313.15	62.556	.0062556
.528	313.15	57.725	.0057725
.5906	313.15	55.345	.0055345
.686	313.15	51.655	.0051655
.762	313.15	48.805	.0048805
.818	313.15	46.905	.0046905
.877	313.15	44.655	.0044655
.933	313.15	42.74	.004274
.956	313.15	42.005	.0042005

System: tetrahydrofuran + 1-chloropropane; phases: Gas, Liquid
Property: Mole fraction of tetrahydrofuran (Gas); method: Density calibration data
Mole fraction of tetrahydrofuran	Temperature, K	Mole fraction of tetrahydrofuran	uncertainty
.0592	298.15	.0287	.0005
.0985	298.15	.0405	.0005
.191	298.15	.0992	.0005
.328	298.15	.1739	.0005
.4103	298.15	.2384	.0005
.516	298.15	.3363	.0005
.5903	298.15	.4181	.0005
.685	298.15	.523	.0005
.762	298.15	.6199	.0005
.818	298.15	.6913	.0005
.874	298.15	.7912	.0005
.923	298.15	.8525	.0005
.956	298.15	.9109	.0005
.0592	313.15	.0255	.0005
.0985	313.15	.0415	.0005
.192	313.15	.1126	.0005
.317	313.15	.1898	.0005
.4103	313.15	.2502	.0005
.528	313.15	.3805	.0005
.5906	313.15	.4253	.0005
.686	313.15	.5308	.0005
.762	313.15	.6233	.0005
.818	313.15	.7005	.0005
.877	313.15	.7915	.0005
.933	313.15	.8805	.0005
.956	313.15	.928	.0005

System: tetrahydropyran + 1-chloropropane; phases: Liquid
Fixed: Pressure, kPa = 101
Property: Mass density, kg/m3 (Liquid); method: Vibrating tube method
Temperature, K	Mole fraction of tetrahydropyran	Mass density, kg/m3	uncertainty
283.15	0	902.42	.01
283.15	.0496	902.08	.01
283.15	.0715	901.98	.01
283.15	.1966	901.36	.01
283.15	.2971	900.76	.01
283.15	.409	899.93	.01
283.15	.5069	899.05	.01
283.15	.6045	898.09	.01
283.15	.6982	897.09	.01
283.15	.8021	895.95	.01
283.15	.8977	894.86	.01
283.15	.955	894.18	.01
283.15	1	893.63	.01
298.15	0	883.29	.01
298.15	.0468	883.35	.01
298.15	.105	883.4	.01
298.15	.1982	883.43	.01
298.15	.3012	883.26	.01
298.15	.4005	882.94	.01
298.15	.5025	882.52	.01
298.15	.6078	881.91	.01
298.15	.6982	881.29	.01
298.15	.8014	880.53	.01
298.15	.9	879.7	.01
298.15	.962	879.14	.01
298.15	1	878.8	.01
313.15	0	864.69	.01
313.15	.0481	864.93	.01
313.15	.0958	865.2	.01
313.15	.1991	865.66	.01
313.15	.2987	865.94	.01
313.15	.4067	866.04	.01
313.15	.5027	865.96	.01
313.15	.6031	865.73	.01
313.15	.6992	865.38	.01
313.15	.8004	864.91	.01
313.15	.8991	864.28	.01
313.15	.9503	863.99	.01
313.15	1	863.67	.01

System: tetrahydropyran + 1-chloropropane; phases: Liquid
Fixed: Pressure, kPa = 101
Property: Speed of sound, m/s (Liquid); method: Sing-around technique in a fixed-path interferometer
Temperature, K	Mole fraction of tetrahydropyran	Speed of sound, m/s	uncertainty
283.15	0	1130.6	1
283.15	.0496	1142.5	1
283.15	.0715	1147.3	1
283.15	.1966	1175.2	1
283.15	.2971	1196.6	1
283.15	.409	1220	1
283.15	.5069	1240.6	1
283.15	.6045	1260.6	1
283.15	.6982	1279.7	1
283.15	.8021	1301	1
283.15	.8977	1319.3	1
283.15	.955	1330.5	1
283.15	1	1338.9	1
298.15	0	1065.5	1
298.15	.0468	1076.2	1
298.15	.105	1089.3	1
298.15	.1982	1109.7	1
298.15	.3012	1131.2	1
298.15	.4005	1151.6	1
298.15	.5025	1172.6	1
298.15	.6078	1193.8	1
298.15	.6982	1211.8	1
298.15	.8014	1232.3	1
298.15	.9	1250.8	1
298.15	.962	1262.4	1
298.15	1	1269.3	1
313.15	0	1000.5	1
313.15	.0481	1012.5	1
313.15	.0958	1023.2	1
313.15	.1991	1045.9	1
313.15	.2987	1066.6	1
313.15	.4067	1088.6	1
313.15	.5027	1108	1
313.15	.6031	1128.1	1
313.15	.6992	1147	1
313.15	.8004	1166.7	1
313.15	.8991	1184.8	1
313.15	.9503	1194.4	1
313.15	1	1203.3	1

System: tetrahydropyran + 1-chloropropane; phases: Liquid
Fixed: Pressure, kPa = 101
Property: Refractive index (Na D-line) (Liquid); method: Standard Abbe refractometry
Temperature, K	Mole fraction of tetrahydropyran	Refractive index (Na D-line)	uncertainty
283.15	0	1.394311	.00002
283.15	.0546	1.396232	.00002
283.15	.0786	1.397082	.00002
283.15	.2132	1.401681	.00002
283.15	.3188	1.405207	.00002
283.15	.4339	1.408962	.00002
283.15	.5324	1.412096	.00002
283.15	.6286	1.415101	.00002
283.15	.7193	1.417876	.00002
283.15	.8178	1.420857	.00002
283.15	.9067	1.423526	.00002
283.15	.9592	1.425068	.00002
283.15	1	1.426277	.00002
298.15	0	1.385475	.00002
298.15	.0513	1.387374	.00002
298.15	.1145	1.389679	.00002
298.15	.2141	1.393241	.00002
298.15	.3221	1.396998	.00002
298.15	.6308	1.407253	.00002
298.15	.7183	1.410007	.00002
298.15	.8164	1.413072	.00002
298.15	.9084	1.415903	.00002
298.15	.9654	1.417646	.00002
298.15	.4241	1.400486	.00002
298.15	.5268	1.403898	.00002
298.15	1	1.418706	.00002
313.15	0	1.376447	.00002
313.15	.0526	1.378483	.00002
313.15	.1042	1.380447	.00002
313.15	.2144	1.384552	.00002
313.15	.3186	1.388341	.00002
313.15	.4294	1.392277	.00002
313.15	.526	1.395625	.00002
313.15	.6252	1.398971	.00002
313.15	.7185	1.402028	.00002
313.15	.8149	1.405103	.00002
313.15	.9073	1.407999	.00002
313.15	.9545	1.409477	.00002
313.15	1	1.410916	.00002

System: tetrahydropyran + 1-chloropropane; phases: Liquid, Gas
Property: Vapor or sublimation pressure, kPa (Liquid); method: Closed cell (Static) method
Mole fraction of tetrahydropyran	Temperature, K	Vapor or sublimation pressure, kPa	uncertainty
.0425	298.15	44.19	.004419
.099	298.15	42.055	.0042055
.182	298.15	38.805	.0038805
.2605	298.15	35.78	.003578
.341	298.15	32.515	.0032515
.445	298.15	28.695	.0028695
.5092	298.15	26.205	.0026205
.575	298.15	23.805	.0023805
.674	298.15	20.425	.0020425
.764	298.15	17.175	.0017175
.8285	298.15	15.185	.0015185
.899	298.15	12.685	.0012685
.9611	298.15	10.885	.0010885
.04	313.15	78.05	.007805
.0895	313.15	74.745	.0074745
.173	313.15	69.075	.0069075
.2492	313.15	64.005	.0064005
.343	313.15	57.885	.0057885
.446	313.15	50.945	.0050945
.5025	313.15	47.65	.004765
.574	313.15	42.985	.0042985
.675	313.15	37.095	.0037095
.763	313.15	31.94	.003194
.897	313.15	24.175	.0024175
.9475	313.15	21.395	.0021395
.04	313.15	78.05	.007805

System: tetrahydropyran + 1-chloropropane; phases: Gas, Liquid
Property: Mole fraction of tetrahydropyran (Gas); method: Density calibration data
Mole fraction of tetrahydropyran	Temperature, K	Mole fraction of tetrahydropyran	uncertainty
.0425	298.15	.0092	.005
.099	298.15	.0255	.005
.182	298.15	.0477	.005
.2605	298.15	.0601	.005
.341	298.15	.1025	.005
.445	298.15	.1525	.005
.5092	298.15	.1765	.005
.575	298.15	.2185	.005
.674	298.15	.3205	.005
.764	298.15	.4154	.005
.8285	298.15	.5198	.005
.899	298.15	.6675	.005
.9611	298.15	.8599	.005
.04	313.15	.0077	.005
.0895	313.15	.0256	.005
.173	313.15	.04	.005
.2492	313.15	.0725	.005
.343	313.15	.1106	.005
.446	313.15	.1681	.005
.5025	313.15	.1909	.005
.574	313.15	.2569	.005
.675	313.15	.3301	.005
.763	313.15	.441	.005
.897	313.15	.6967	.005
.9475	313.15	.8291	.005
.04	313.15	.0077	.005
