Measured thermophysical data. Solubility of methylphosphonic acid in selected organic solvents
Source: Fluid Phase Equilib., 2015, 10.1016/j.fluid.2015.01.009
Compound 1: methylphosphonic acid, CH5O3P, purity 99.5%
Compound 2: ethanol, C2H6O, purity 99.5%
Compound 3: n-propanol, C3H8O, purity 99.5%
Compound 4: isopropanol, C3H8O, purity 99.5%
Compound 5: acetone, C3H6O, purity 99.5%
Compound 6: butanone, C4H8O, purity 99.5%
Compound 7: ethyl acetate, C4H8O2, purity 99.5%

System: methylphosphonic acid; phases: Crystal, Liquid, Air at 1 atmosphere
Property: Normal melting temperature, K (Crystal); method: DSC/DTA
Normal melting temperature, K	uncertainty
382.11	.38

System: methylphosphonic acid; phases: Crystal, Liquid, Air at 1 atmosphere
Property: Molar enthalpy of transition or fusion, kJ/mol (Crystal); method: DSC
Molar enthalpy of transition or fusion, kJ/mol	uncertainty
10.4095	.0374742

System: ethanol + methylphosphonic acid; phases: Liquid, Crystal
Fixed: Pressure, kPa = 100
Property: Mole fraction of methylphosphonic acid (Liquid); method: drying in vacuum
Temperature, K	Mole fraction of methylphosphonic acid	uncertainty
288.38	.4127	.012381
293.25	.4443	.013329
298.25	.4778	.014334
303.17	.5085	.015255
308.4	.5409	.016227
313.32	.5754	.017262
318.44	.605	.01815

System: n-propanol + methylphosphonic acid; phases: Liquid, Crystal
Fixed: Pressure, kPa = 100
Property: Mole fraction of methylphosphonic acid (Liquid); method: drying in vacuum
Temperature, K	Mole fraction of methylphosphonic acid	uncertainty
288.38	.4031	.012093
293.25	.4259	.012777
298.25	.4533	.013599
303.17	.4792	.014376
308.4	.5085	.015255
313.32	.5304	.015912
318.44	.5647	.016941

System: isopropanol + methylphosphonic acid; phases: Liquid, Crystal
Fixed: Pressure, kPa = 100
Property: Mole fraction of methylphosphonic acid (Liquid); method: drying in vacuum
Temperature, K	Mole fraction of methylphosphonic acid	uncertainty
288.38	.4588	.013764
293.25	.4698	.014094
298.25	.4948	.014844
303.17	.5162	.015486
308.4	.5384	.016152
313.32	.5614	.016842
318.44	.5899	.017697

System: acetone + methylphosphonic acid; phases: Liquid, Crystal
Fixed: Pressure, kPa = 100
Property: Mole fraction of methylphosphonic acid (Liquid); method: drying in vacuum
Temperature, K	Mole fraction of methylphosphonic acid	uncertainty
288.11	.1041	.003123
293.1	.1623	.004869
298.14	.2409	.007227
301.15	.2959	.008877
303.17	.3359	.010077
306.16	.4195	.012585
308.15	.4638	.013914

System: butanone + methylphosphonic acid; phases: Liquid, Crystal
Fixed: Pressure, kPa = 100
Property: Mole fraction of methylphosphonic acid (Liquid); method: drying in vacuum
Temperature, K	Mole fraction of methylphosphonic acid	uncertainty
288.38	.01469	.0004407
293.25	.02301	.0006903
298.25	.03865	.0011595
303.17	.07155	.0021465
308.4	.1224	.003672
313.32	.1926	.005778
318.44	.335	.01005

System: ethyl acetate + methylphosphonic acid; phases: Liquid, Crystal
Fixed: Pressure, kPa = 100
Property: Mole fraction of methylphosphonic acid (Liquid); method: drying in vacuum
Temperature, K	Mole fraction of methylphosphonic acid	uncertainty
288.38	.01285	.0003855
293.25	.01478	.0004434
298.25	.01664	.0004992
303.17	.01868	.0005604
308.4	.02095	.0006285
313.32	.02316	.0006948
318.44	.02532	.0007596
