Measured thermophysical data. A comparative study of the volumetric properties of aqueous solutions of pyridine and piperidine derivatives
Source: Fluid Phase Equilib., 2013, 10.1016/j.fluid.2012.10.024
Compound 1: 2-(hydroxymethyl)piperidine, C6H13NO, purity 97%
Compound 2: 3-(hydroxymethyl)piperidine, C6H13NO, purity 99%
Compound 3: 2-pyridinemethanol, C6H7NO, purity 97%
Compound 4: 3-pyridinemethanol, C6H7NO, purity 99%
Compound 5: water, H2O, purity 99.99%

System: 2-pyridinemethanol; phases: Liquid
Fixed: Pressure, kPa = 101.325
Property: Mass density, kg/m3 (Liquid); method: Vibrating tube method
Temperature, K	Mass density, kg/m3	uncertainty
291.15	1133.6	.5
292.15	1133.1	.5
293.15	1132.4	.5
295.15	1130.7	.5
297.15	1129.3	.5
298.15	1128.7	.5
299.15	1127.7	.5
300.15	1127.1	.5
302.15	1125.6	.5
303.15	1124.8	.5
304.15	1124	.5
306.15	1122.4	.5
308.15	1120.8	.5
310.15	1119.4	.5
312.15	1118.1	.5
313.15	1117.2	.5
315.15	1115.6	.5
317.15	1114.2	.5
318.15	1113.5	.5

System: 3-pyridinemethanol; phases: Liquid
Fixed: Pressure, kPa = 101.325
Property: Mass density, kg/m3 (Liquid); method: Vibrating tube method
Temperature, K	Mass density, kg/m3	uncertainty
291.15	1138.2	.5
292.15	1137.5	.5
293.15	1136.8	.5
295.15	1135.3	.5
297.15	1134.1	.5
298.15	1133.5	.5
299.15	1132.6	.5
300.15	1131.8	.5
302.15	1130.4	.5
303.15	1129.6	.5
304.15	1128.9	.5
306.15	1127.5	.5
308.15	1125.9	.5
310.15	1124.7	.5
312.15	1123.5	.5
313.15	1122.6	.5
315.15	1121.2	.5
317.15	1120	.5
318.15	1119.3	.5

System: 2-(hydroxymethyl)piperidine + water; phases: Liquid
Fixed: Pressure, kPa = 101
Property: Mass density, kg/m3 (Liquid); method: Vibrating tube method
Temperature, K	Molality, mol/kg of 2-(hydroxymethyl)piperidine	Mass density, kg/m3	uncertainty
293.15	.0476	998.6	.1
293.15	.0676	998.75	.1
293.15	.0864	998.87	.1
293.15	.1214	999.15	.1
293.15	.1524	999.37	.1
293.15	.1766	999.52	.1
293.15	.2009	999.71	.1
293.15	.2264	999.87	.1
293.15	.2609	1000.11	.1
298.15	.0476	997.46	.1
298.15	.0676	997.6	.1
298.15	.0864	997.72	.1
298.15	.1214	997.99	.1
298.15	.1524	998.2	.1
298.15	.1766	998.34	.1
298.15	.2009	998.53	.1
298.15	.2264	998.68	.1
298.15	.2609	998.91	.1
303.15	.0476	996.06	.1
303.15	.0676	996.19	.1
303.15	.0864	996.31	.1
303.15	.1214	996.57	.1
303.15	.1524	996.77	.1
303.15	.1766	996.91	.1
303.15	.2009	997.09	.1
303.15	.2264	997.24	.1
303.15	.2609	997.46	.1
308.15	.0476	994.44	.1
308.15	.0676	994.56	.1
308.15	.0864	994.68	.1
308.15	.1214	994.93	.1
308.15	.1524	995.13	.1
308.15	.1766	995.26	.1
308.15	.2009	995.43	.1
308.15	.2264	995.58	.1
308.15	.2609	995.79	.1
313.15	.0476	992.59	.1
313.15	.0676	992.74	.1
313.15	.0864	992.85	.1
313.15	.1214	993.1	.1
313.15	.1524	993.28	.1
313.15	.1766	993.41	.1
313.15	.2009	993.58	.1
313.15	.2264	993.72	.1
313.15	.2609	993.92	.1
318.15	.0476	990.6	.1
318.15	.0676	990.72	.1
318.15	.0864	990.83	.1
318.15	.1214	991.07	.1
318.15	.1524	991.25	.1
318.15	.1766	991.37	.1
318.15	.2009	991.53	.1
318.15	.2264	991.66	.1
318.15	.2609	991.86	.1

System: 3-(hydroxymethyl)piperidine + water; phases: Liquid
Fixed: Pressure, kPa = 101
Property: Mass density, kg/m3 (Liquid); method: Vibrating tube method
Temperature, K	Molality, mol/kg of 3-(hydroxymethyl)piperidine	Mass density, kg/m3	uncertainty
293.15	.0562	999.04	.1
293.15	.0841	999.09	.1
293.15	.1205	999.36	.1
293.15	.1576	999.67	.1
293.15	.188	999.94	.1
293.15	.2257	1000.2	.1
293.15	.2728	1000.48	.1
293.15	.3059	1000.72	.1
293.15	.3481	1000.95	.1
298.15	.0562	997.9	.1
298.15	.0841	997.94	.1
298.15	.1205	998.2	.1
298.15	.1576	998.52	.1
298.15	.188	998.77	.1
298.15	.2257	999.02	.1
298.15	.2728	999.285	.1
298.15	.3059	999.52	.1
298.15	.3481	999.74	.1
303.15	.0562	996.5	.1
303.15	.0841	996.53	.1
303.15	.1205	996.79	.1
303.15	.1576	997.1	.1
303.15	.188	997.34	.1
303.15	.2257	997.58	.1
303.15	.2728	997.835	.1
303.15	.3059	998.06	.1
303.15	.3481	998.27	.1
308.15	.0562	994.87	.1
308.15	.0841	994.9	.1
308.15	.1205	995.16	.1
308.15	.1576	995.46	.1
308.15	.188	995.7	.1
308.15	.2257	995.93	.1
308.15	.2728	996.165	.1
308.15	.3059	996.39	.1
308.15	.3481	996.59	.1
313.15	.0562	993.05	.1
313.15	.0841	993.07	.1
313.15	.1205	993.32	.1
313.15	.1576	993.61	.1
313.15	.188	993.85	.1
313.15	.2257	994.07	.1
313.15	.2728	994.3	.1
313.15	.3059	994.52	.1
313.15	.3481	994.71	.1
318.15	.0562	991.04	.1
318.15	.0841	991.06	.1
318.15	.1205	991.3	.1
318.15	.1576	991.58	.1
318.15	.188	991.82	.1
318.15	.2257	992.02	.1
318.15	.2728	992.25	.1
318.15	.3059	992.46	.1
318.15	.3481	992.64	.1

System: 2-pyridinemethanol + water; phases: Liquid
Fixed: Pressure, kPa = 101
Property: Mass density, kg/m3 (Liquid); method: Vibrating tube method
Temperature, K	Mole fraction of 2-pyridinemethanol	Mass density, kg/m3	uncertainty
293.15	1	1132.3	.5
293.15	.95	1131.9	.5
293.15	.9	1131.5	.5
293.15	.8	1130.2	.5
293.15	.75	1129.3	.5
293.15	.7	1128.4	.5
293.15	.65	1127.5	.5
293.15	.6	1125.7	.5
293.15	.55	1124.4	.5
293.15	.5	1122.4	.5
293.15	.45	1119.8	.5
293.15	.4	1116	.5
293.15	.35	1112	.5
293.15	.3	1106.3	.5
293.15	.25	1098.1	.5
293.15	.2	1088.5	.5
293.15	.15	1077.3	.5
293.15	.05	1033.4	.5
293.15	0	998.2	.5
298.15	1	1128.8	.5
298.15	.95	1128.3	.5
298.15	.9	1127.9	.5
298.15	.8	1126.7	.5
298.15	.75	1125.8	.5
298.15	.7	1124.8	.5
298.15	.65	1123.9	.5
298.15	.6	1122.1	.5
298.15	.55	1120.7	.5
298.15	.5	1118.9	.5
298.15	.45	1116.2	.5
298.15	.4	1111.7	.5
298.15	.35	1107.9	.5
298.15	.3	1102.9	.5
298.15	.25	1094	.5
298.15	.2	1085	.5
298.15	.15	1074.4	.5
298.15	.05	1031.7	.5
298.15	0	997	.5
303.15	1	1124.7	.5
303.15	.95	1124.3	.5
303.15	.9	1123.9	.5
303.15	.8	1122.6	.5
303.15	.75	1121.7	.5
303.15	.7	1120.7	.5
303.15	.65	1119.8	.5
303.15	.6	1117.9	.5
303.15	.55	1116.3	.5
303.15	.5	1114.7	.5
303.15	.45	1111.9	.5
303.15	.4	1106.7	.5
303.15	.35	1103.4	.5
303.15	.3	1098.9	.5
303.15	.25	1089.6	.5
303.15	.2	1080.9	.5
303.15	.15	1071	.5
303.15	.05	1029.2	.5
303.15	0	995.6	.5
308.15	1	1120.7	.5
308.15	.95	1120.3	.5
308.15	.9	1119.8	.5
308.15	.8	1118.7	.5
308.15	.75	1117.7	.5
308.15	.7	1116.9	.5
308.15	.65	1115.9	.5
308.15	.6	1113.9	.5
308.15	.55	1112.2	.5
308.15	.5	1110.8	.5
308.15	.45	1107.4	.5
308.15	.4	1102.3	.5
308.15	.35	1099.3	.5
308.15	.3	1095.1	.5
308.15	.25	1085.5	.5
308.15	.2	1076.8	.5
308.15	.15	1067.6	.5
308.15	.05	1027.6	.5
308.15	0	994	.5
313.15	1	1116.9	.5
313.15	.95	1116.6	.5
313.15	.9	1116.1	.5
313.15	.8	1115	.5
313.15	.75	1114.1	.5
313.15	.7	1113.1	.5
313.15	.65	1112.1	.5
313.15	.6	1110	.5
313.15	.55	1108.3	.5
313.15	.5	1107	.5
313.15	.45	1103.6	.5
313.15	.4	1098.2	.5
313.15	.35	1095.4	.5
313.15	.3	1091.5	.5
313.15	.25	1081.6	.5
313.15	.2	1073.1	.5
313.15	.15	1064.5	.5
313.15	.05	1024.4	.5
313.15	0	992.2	.5
318.15	1	1113.3	.5
318.15	.95	1112.9	.5
318.15	.9	1112.4	.5
318.15	.8	1111.2	.5
318.15	.75	1110.4	.5
318.15	.7	1109.5	.5
318.15	.65	1108.4	.5
318.15	.6	1106.3	.5
318.15	.55	1104.5	.5
318.15	.5	1103.2	.5
318.15	.45	1099.8	.5
318.15	.4	1094.5	.5
318.15	.35	1091.4	.5
318.15	.3	1087.9	.5
318.15	.25	1077.8	.5
318.15	.2	1069.3	.5
318.15	.15	1061.1	.5
318.15	.05	1021.6	.5
318.15	0	990.2	.5

System: 3-pyridinemethanol + water; phases: Liquid
Fixed: Pressure, kPa = 101
Property: Mass density, kg/m3 (Liquid); method: Vibrating tube method
Temperature, K	Mole fraction of 3-pyridinemethanol	Mass density, kg/m3	uncertainty
293.15	1	1136.8	.5
293.15	.95	1136.1	.5
293.15	.9	1135.2	.5
293.15	.85	1134.5	.5
293.15	.8	1133.5	.5
293.15	.75	1132.3	.5
293.15	.7	1131.1	.5
293.15	.65	1129.7	.5
293.15	.6	1128	.5
293.15	.55	1125.9	.5
293.15	.5	1123.5	.5
293.15	.45	1120.5	.5
293.15	.4	1117	.5
293.15	.35	1111.4	.5
293.15	.3	1106.6	.5
293.15	.25	1098	.5
293.15	.2	1089.7	.5
293.15	.15	1074.5	.5
293.15	.1	1056.5	.5
293.15	.05	1032.8	.5
293.15	0	998.2	.5
298.15	1	1129.6	.5
298.15	.95	1128.9	.5
298.15	.9	1128.1	.5
298.15	.85	1127.4	.5
298.15	.8	1126.3	.5
298.15	.75	1125.2	.5
298.15	.7	1123.9	.5
298.15	.65	1122.5	.5
298.15	.6	1120.8	.5
298.15	.55	1118.6	.5
298.15	.5	1116.5	.5
298.15	.45	1113.5	.5
298.15	.4	1109.9	.5
298.15	.35	1104.4	.5
298.15	.3	1099.7	.5
298.15	.25	1091.4	.5
298.15	.2	1083.2	.5
298.15	.15	1068.7	.5
298.15	.1	1051.1	.5
298.15	.05	1028.7	.5
298.15	0	995.6	.5
308.15	1	1125.9	.5
308.15	.95	1125.3	.5
308.15	.9	1124.5	.5
308.15	.85	1123.7	.5
308.15	.8	1122.7	.5
308.15	.75	1121.6	.5
308.15	.7	1120.3	.5
308.15	.65	1118.9	.5
308.15	.6	1117.3	.5
308.15	.55	1114.9	.5
308.15	.5	1112.8	.5
308.15	.45	1109.7	.5
308.15	.4	1106.3	.5
308.15	.35	1100.8	.5
308.15	.3	1096.2	.5
308.15	.25	1088	.5
308.15	.2	1079.8	.5
308.15	.15	1065.5	.5
308.15	.1	1048.2	.5
308.15	.05	1026.3	.5
308.15	0	994	.5
313.15	1	1122.6	.5
313.15	.95	1122	.5
313.15	.9	1121.1	.5
313.15	.85	1120.3	.5
313.15	.8	1119.3	.5
313.15	.75	1118.1	.5
313.15	.7	1116.9	.5
313.15	.65	1115.5	.5
313.15	.6	1113.8	.5
313.15	.55	1111.6	.5
313.15	.5	1109.4	.5
313.15	.45	1106.4	.5
313.15	.4	1103	.5
313.15	.35	1097.4	.5
313.15	.3	1092.8	.5
313.15	.25	1084.7	.5
313.15	.2	1076.6	.5
313.15	.15	1062.5	.5
313.15	.1	1045.5	.5
313.15	.05	1024.1	.5
313.15	0	992.2	.5
318.15	1	1119.3	.5
318.15	.95	1118.6	.5
318.15	.9	1117.7	.5
318.15	.85	1116.9	.5
318.15	.8	1115.9	.5
318.15	.75	1114.7	.5
318.15	.7	1113.5	.5
318.15	.65	1112.1	.5
318.15	.6	1110.4	.5
318.15	.55	1108.2	.5
318.15	.5	1106	.5
318.15	.45	1102.9	.5
318.15	.4	1099.4	.5
318.15	.35	1094	.5
318.15	.3	1089.5	.5
318.15	.25	1081.4	.5
318.15	.2	1073.3	.5
318.15	.15	1059.5	.5
318.15	.1	1042.8	.5
318.15	.05	1021.8	.5
318.15	0	990.2	.5
