Measured thermophysical data. Isobaric vapor-liquid equilibrium for four binary systems of 3-methylthiophene
Source: Fluid Phase Equilib., 2012, 10.1016/j.fluid.2012.02.005
Compound 1: 3-methylthiophene, C5H6S, purity 99.5%
Compound 2: 2,3-dimethyl-2-butene, C6H12, purity 99.5%
Compound 3: heptane, C7H16, purity 99.5%
Compound 4: toluene, C7H8, purity 99.5%
Compound 5: 2-methylbutane, C5H12, purity 99.3%

System: 3-methylthiophene; phases: Liquid, Gas
Property: Normal boiling temperature, K (Liquid); method: Ebulliometric method (Recirculating still)
Normal boiling temperature, K	uncertainty
388.35	.02

System: 2,3-dimethyl-2-butene; phases: Liquid, Gas
Property: Normal boiling temperature, K (Liquid); method: Ebulliometric method (Recirculating still)
Normal boiling temperature, K	uncertainty
346.15	.02

System: heptane; phases: Liquid, Gas
Property: Normal boiling temperature, K (Liquid); method: Ebulliometric method (Recirculating still)
Normal boiling temperature, K	uncertainty
371.64	.02

System: toluene; phases: Liquid, Gas
Property: Normal boiling temperature, K (Liquid); method: Ebulliometric method (Recirculating still)
Normal boiling temperature, K	uncertainty
383.69	.02

System: 2-methylbutane; phases: Liquid, Gas
Property: Normal boiling temperature, K (Liquid); method: Ebulliometric method (Recirculating still)
Normal boiling temperature, K	uncertainty
301.15	.02

System: 2,3-dimethyl-2-butene + 3-methylthiophene; phases: Liquid, Gas
Fixed: Pressure, kPa = 101.33
Property: Mole fraction of 3-methylthiophene (Liquid); method: Chromatography
Temperature, K	Mole fraction of 3-methylthiophene	uncertainty
346.92	.0283	.001
349.52	.1408	.001
353.49	.2778	.001
356.36	.3889	.001
360.36	.5157	.001
363.47	.6005	.001
366.01	.6653	.001
368.44	.7248	.001
368.89	.7333	.001
373.24	.8223	.001
375.23	.8498	.001
376.18	.87	.001
377.83	.8943	.001
381.06	.9354	.001
382.98	.9527	.001
385.39	.9755	.001
386.28	.9841	.001

System: 2,3-dimethyl-2-butene + 3-methylthiophene; phases: Gas, Liquid
Fixed: Pressure, kPa = 101.33
Property: Mole fraction of 3-methylthiophene (Gas); method: Chromatography
Temperature, K	Mole fraction of 3-methylthiophene	uncertainty
346.92	.0094	.001
349.52	.0494	.001
353.49	.1079	.001
356.36	.1615	.001
360.36	.244	.001
363.47	.2996	.001
366.01	.3617	.001
368.44	.4132	.001
368.89	.419	.001
373.24	.5372	.001
375.23	.5781	.001
376.18	.6139	.001
377.83	.66	.001
381.06	.7561	.001
382.98	.8135	.001
385.39	.8935	.001
386.28	.9298	.001

System: heptane + 3-methylthiophene; phases: Gas, Liquid
Fixed: Pressure, kPa = 101.33
Property: Mole fraction of 3-methylthiophene (Gas); method: Chromatography
Temperature, K	Mole fraction of 3-methylthiophene	uncertainty
371.36	.0361	.001
371.79	.1633	.001
372.92	.289	.001
373.31	.3251	.001
373.76	.3503	.001
374.51	.3996	.001
375.75	.4697	.001
376.07	.484	.001
377.04	.5221	.001
377.98	.5693	.001
379.11	.6144	.001
380.62	.6856	.001
381.38	.7175	.001
382.29	.753	.001
383.23	.7794	.001
384.04	.817	.001
385.71	.8864	.001

System: heptane + 3-methylthiophene; phases: Liquid, Gas
Fixed: Pressure, kPa = 101.33
Property: Mole fraction of 3-methylthiophene (Liquid); method: Chromatography
Temperature, K	Mole fraction of 3-methylthiophene	uncertainty
371.36	.0394	.001
371.79	.1879	.001
372.92	.3643	.001
373.31	.4087	.001
373.76	.4544	.001
374.51	.5215	.001
375.75	.612	.001
376.07	.6324	.001
377.04	.6876	.001
377.98	.7338	.001
379.11	.7813	.001
380.62	.8404	.001
381.38	.8594	.001
382.29	.8819	.001
383.23	.905	.001
384.04	.9266	.001
385.71	.9596	.001

System: toluene + 3-methylthiophene; phases: Liquid, Gas
Fixed: Pressure, kPa = 101.33
Property: Mole fraction of 3-methylthiophene (Liquid); method: Chromatography
Temperature, K	Mole fraction of 3-methylthiophene	uncertainty
383.84	.0308	.001
383.98	.0631	.001
384.38	.1538	.001
384.81	.2557	.001
385.14	.3474	.001
385.52	.4262	.001
385.83	.4998	.001
386.13	.5728	.001
386.42	.6384	.001
386.7	.6999	.001
386.97	.7586	.001
387.21	.8047	.001
387.47	.8534	.001
387.53	.8633	.001
387.68	.89	.001
387.86	.9179	.001
388.01	.9414	.001

System: toluene + 3-methylthiophene; phases: Gas, Liquid
Fixed: Pressure, kPa = 101.33
Property: Mole fraction of 3-methylthiophene (Gas); method: Chromatography
Temperature, K	Mole fraction of 3-methylthiophene	uncertainty
383.84	.0296	.001
383.98	.059	.001
384.38	.1407	.001
384.81	.234	.001
385.14	.3202	.001
385.52	.3961	.001
385.83	.4666	.001
386.13	.5378	.001
386.42	.6037	.001
386.7	.6671	.001
386.97	.7295	.001
387.21	.7778	.001
387.47	.8299	.001
387.53	.8415	.001
387.68	.8713	.001
387.86	.9041	.001
388.01	.9317	.001

System: 2-methylbutane + 3-methylthiophene; phases: Gas, Liquid
Fixed: Pressure, kPa = 101.33
Property: Mole fraction of 3-methylthiophene (Gas); method: Chromatography
Temperature, K	Mole fraction of 3-methylthiophene	uncertainty
303.8	.0049	.001
306.85	.0105	.001
311.49	.0209	.001
322.35	.0579	.001
335.49	.1385	.001
340.62	.1642	.001
344.37	.1946	.001
349.17	.2462	.001
354.33	.3083	.001
357.31	.3458	.001
361.4	.4067	.001
365.41	.4731	.001
366.16	.4869	.001
366.65	.4936	.001
367.42	.5083	.001
368.87	.5379	.001
370.91	.5773	.001
372.74	.6142	.001
374.33	.6473	.001
377.53	.7202	.001
382.36	.8376	.001
384.94	.9005	.001

System: 2-methylbutane + 3-methylthiophene; phases: Liquid, Gas
Fixed: Pressure, kPa = 101.33
Property: Mole fraction of 3-methylthiophene (Liquid); method: Chromatography
Temperature, K	Mole fraction of 3-methylthiophene	uncertainty
303.8	.0941	.001
306.85	.1819	.001
311.49	.2978	.001
322.35	.5104	.001
335.49	.7097	.001
340.62	.764	.001
344.37	.8071	.001
349.17	.8499	.001
354.33	.8855	.001
357.31	.904	.001
361.4	.9255	.001
365.41	.9429	.001
366.16	.9458	.001
366.65	.9476	.001
367.42	.9504	.001
368.87	.9554	.001
370.91	.962	.001
372.74	.9675	.001
374.33	.9719	.001
377.53	.9798	.001
382.36	.9898	.001
384.94	.9944	.001
