Measured thermophysical data. Vapor pressures and thermophysical properties of selected monoterpenoids
Source: Fluid Phase Equilib., 2015, 10.1016/j.fluid.2015.07.031
Compound 1: geraniol, C10H18O, purity 98.8%
Compound 2: (-)-borneol, C10H18O, purity 99.1%
Compound 3: (-)-beta-citronellol, C10H20O, purity 99.6%

System: geraniol; phases: Liquid, Gas
Property: Vapor or sublimation pressure, kPa (Liquid); method: Closed cell (Static) method
Temperature, K	Vapor or sublimation pressure, kPa	uncertainty
293.11	.001082	.0000662
293.14	.001071	.0000661
293.14	.001079	.0000662
298.15	.001851	.0000778
298.15	.001857	.0000779
298.15	.001858	.0000779
303.17	.003087	.0000963
303.17	.003101	.0000965
303.18	.003091	.0000964
308.19	.005016	.000125
308.19	.005018	.000125
308.19	.005019	.000125
313.16	.008035	.000171
313.16	.008051	.000171
313.16	.008055	.000171
318.16	.01263	.000239
318.16	.01264	.00024
318.16	.01265	.00024
323.17	.0196	.000344
323.17	.01965	.000345
323.17	.0197	.000346
328.17	.03003	.0005
328.17	.0301	.000502
328.17	.0301	.000502
333.16	.04478	.000722
333.16	.04499	.000725
333.16	.04502	.000725
338.14	.06605	.001041
338.14	.06612	.001042
338.14	.06614	.001042
343.13	.09605	.001491
343.13	.09608	.001491
343.13	.0961	.001492
348.1	.1372	.002108
348.1	.1373	.00211
348.1	.1373	.00211
353.07	.194	.00296
353.07	.194	.00296
353.07	.1941	.002962
358.04	.2693	.00409
358.04	.2693	.00409
358.04	.2697	.004096
362.92	.3686	.005579
362.92	.3687	.005581
362.94	.3684	.005576
273.65	.000112	.0000506
273.65	.000109	.0000505
273.65	.000111	.0000506
278.15	.00019	.000051
278.15	.000192	.000051
278.15	.000195	.000051
283.15	.000357	.0000518
283.15	.000355	.0000518
283.15	.000358	.0000518
288.15	.000641	.0000532
288.15	.000637	.0000532
288.15	.000639	.0000532
293.15	.001116	.0000556
293.15	.001114	.0000556
293.15	.001118	.0000556
298.15	.001894	.0000595
298.15	.001904	.0000595
298.15	.001905	.0000595
303.15	.003189	.0000659
303.15	.003178	.0000659
303.15	.00319	.000066
308.15	.005168	.0000758
308.15	.00517	.0000759
308.15	.005167	.0000758

System: geraniol; phases: Liquid
Fixed: Pressure, kPa = 101.325
Property: Molar heat capacity at constant pressure, J/K/mol (Liquid); method: Thin-film microcalorimeter
Temperature, K	Molar heat capacity at constant pressure, J/K/mol	uncertainty
260.8	310.1	3.101
265	313.5	3.135
270	317.5	3.175
275	322.2	3.222
280	326.7	3.267
285	331.3	3.313
290	336.2	3.362
295	341.3	3.413
300	346.1	3.461
305	350.9	3.509
310	355.8	3.558
315	360.7	3.607
320	365.6	3.656
325	370.6	3.706
330	376.2	3.762
335	381.1	3.811
340	385.5	3.855
345	389.8	3.898
350	394.3	3.943
355	398.6	3.986

System: (-)-borneol; phases: Crystal 2, Gas
Property: Vapor or sublimation pressure, kPa (Crystal 2); method: Closed cell (Static) method
Temperature, K	Vapor or sublimation pressure, kPa	uncertainty
293.12	.001843	.0000776
293.13	.001845	.0000777
293.13	.001846	.0000777
298.14	.003114	.0000967
298.14	.003117	.0000968
298.15	.003118	.0000968
303.16	.005163	.0001274
303.16	.005164	.0001275
303.17	.005165	.0001275
308.16	.008376	.0001756
308.18	.008394	.0001759
308.18	.008395	.0001759
313.13	.01335	.0002503
313.14	.01336	.0002504
313.14	.01337	.0002506
318.14	.02101	.0003652
318.14	.02103	.0003655
318.15	.02103	.0003655
323.17	.03267	.0005401
323.18	.03269	.0005404
323.19	.03273	.000541
328.14	.04968	.0007952
328.14	.04971	.0007957
328.15	.04973	.000796
333.18	.07494	.001174
333.18	.07496	.001174
333.18	.07498	.001175
338.2	.1112	.001718
338.21	.1112	.001718
338.21	.1112	.001718
343.15	.1618	.002477
343.15	.1619	.002479
343.15	.1619	.002479
346.99	.2143	.003265
347.09	.2157	.003286
347.1	.2156	.003284

System: (-)-borneol; phases: Crystal 1, Gas
Property: Vapor or sublimation pressure, kPa (Crystal 1); method: Closed cell (Static) method
Temperature, K	Vapor or sublimation pressure, kPa	uncertainty
348.11	.2309	.003514
348.11	.2308	.003512
348.11	.2307	.003511
352.88	.3183	.004825
352.89	.3183	.004825
352.89	.3184	.004826
357.96	.4417	.006676
357.96	.4418	.006677
357.97	.4424	.006686
362.89	.6015	.009073
362.9	.6015	.009073
362.94	.6029	.009094

System: (-)-beta-citronellol; phases: Liquid, Gas
Property: Vapor or sublimation pressure, kPa (Liquid); method: Closed cell (Static) method
Temperature, K	Vapor or sublimation pressure, kPa	uncertainty
293.17	.001319	.0000698
293.17	.001331	.00007
293.17	.001328	.0000699
298.18	.002272	.0000841
298.19	.00227	.0000841
298.2	.002271	.0000841
303.16	.003787	.0001068
303.19	.003806	.0001071
303.2	.003795	.0001069
308.19	.006213	.0001432
308.19	.006203	.000143
308.21	.006198	.000143
313.2	.009899	.0001985
313.21	.009904	.0001986
313.21	.009905	.0001986
318.23	.01566	.0002849
318.24	.01565	.0002848
318.24	.01566	.0002849
323.22	.0243	.0004145
323.23	.02431	.0004147
323.23	.02431	.0004147
328.2	.03714	.0006071
328.21	.03718	.0006077
328.21	.03714	.0006071
333.23	.05589	.0008884
333.23	.05585	.0008878
333.23	.05576	.0008864
338.19	.08215	.001282
338.2	.08219	.001283
338.2	.08218	.001283
343.19	.1192	.001838
343.19	.1192	.001838
343.19	.1193	.00184
348.14	.1705	.002608
348.15	.1706	.002609
348.15	.1706	.002609
353.1	.2403	.003655
353.1	.2403	.003655
353.1	.2404	.003656
358.01	.3337	.005056
358.02	.3345	.005068
358.02	.3342	.005063
362.97	.4601	.006952
362.98	.4602	.006953
362.98	.4607	.006961
273.65	.000129	.0000506
273.65	.00013	.0000507
273.65	.000133	.0000507
278.15	.000231	.0000512
278.15	.000228	.0000511
278.15	.000235	.0000512
283.15	.00043	.0000522
283.15	.000432	.0000522
283.15	.00043	.0000522
288.15	.00077	.0000539
288.15	.000777	.0000539
288.15	.000779	.0000539
293.15	.001361	.0000568
293.15	.001361	.0000568
293.15	.001358	.0000568
298.15	.00233	.0000617
298.15	.002328	.0000616
298.15	.002323	.0000616
303.15	.003871	.0000694
303.15	.003875	.0000694
303.15	.003876	.0000694
308.15	.006284	.0000814
308.15	.006296	.0000815
308.15	.006302	.0000815

System: (-)-beta-citronellol; phases: Liquid
Fixed: Pressure, kPa = 101.325
Property: Molar heat capacity at constant pressure, J/K/mol (Liquid); method: Thin-film microcalorimeter
Temperature, K	Molar heat capacity at constant pressure, J/K/mol	uncertainty
260.2	316.4	3.164
265	320.7	3.207
270	325.5	3.255
275	330.5	3.305
280	335.6	3.356
285	340.9	3.409
290	346.5	3.465
295	352.3	3.523
300	357.9	3.579
305	363.6	3.636
310	369.3	3.693
315	375	3.75
320	380.6	3.806
325	386.5	3.865
330	392.9	3.929
335	398.8	3.988
340	404	4.04
345	409.2	4.092
350	414.6	4.146
355	420	4.2
