Measured thermophysical data. Surface tension of ethane-methane solutions: 1. Experiment and thermodynamic analysis of the results
Source: Fluid Phase Equilib., 2013, 10.1016/j.fluid.2013.07.008
Compound 1: ethane, C2H6, purity 99.75%
Compound 2: methane, CH4, purity 99.97%

System: methane + ethane; phases: Liquid, Air at 1 atmosphere
Property: Surface tension liquid-gas, N/m (Liquid); method: Capillary rise
Temperature, K	Mole fraction of methane	Surface tension liquid-gas, N/m	uncertainty
93.15	0	.0329	.0008225
93.15	1	.01669	.00041725
133.15	0	.02532	.000633
133.15	.194	.02074	.0005185
133.15	.414	.01634	.0004085
133.15	.527	.01445	.00036125
133.15	.821	.01078	.0002695
133.15	1	.00878	.0002195
173.15	0	.01826	.0004565
173.15	.133	.01559	.00038975
173.15	.139	.01537	.00038425
173.15	.256	.01287	.00032175
173.15	.421	.0098	.000245
173.15	.429	.0096	.00024
173.15	.459	.00907	.00022675
173.15	.565	.00767	.00019175
173.15	.587	.00714	.0001785
173.15	.684	.00598	.0001495
173.15	.691	.00579	.00014475
173.15	.793	.00451	.00011275
173.15	.818	.00429	.00010725
173.15	.821	.00425	.00010625
173.15	1	.002	.00005
193.15	0	.01501	.00037525
193.15	.134	.01226	.0003065
193.15	.16	.01162	.0002905
193.15	.284	.00934	.0002335
193.15	.287	.00907	.00022675
193.15	.395	.00734	.0001835
193.15	.501	.00547	.00013675
193.15	.672	.00349	.00008725
193.15	.685	.00323	.00008075
213.15	0	.01179	.00029475
213.15	.024	.01122	.0002805
213.15	.116	.00957	.00023925
213.15	.17	.0086	.000215
213.15	.238	.00728	.000182
213.15	.447	.00411	.00010275
213.15	.539	.00271	.00006775
233.15	0	.00877	.00021925
233.15	.075	.00719	.00017975
233.15	.143	.00606	.0001515
233.15	.153	.00589	.00014725
233.15	.214	.00493	.00012325
233.15	.228	.0047	.0001175
233.15	.292	.00363	.00009075
233.15	.297	.00355	.00008875
233.15	.362	.00274	.0000685
233.15	.369	.00258	.0000645
253.15	0	.00577	.00014425
253.15	.048	.00517	.00012925
253.15	.099	.0044	.00011
253.15	.145	.00373	.00009325
253.15	.196	.00298	.0000745
253.15	.241	.00234	.0000585
253.15	.242	.00228	.000057
263.15	0	.00448	.000112
263.15	.048	.00382	.0000955
263.15	.098	.00315	.00007875
263.15	.142	.00258	.0000645
263.15	.185	.00203	.00005075
273.15	0	.0032	.00008
273.15	.035	.00276	.000069
273.15	.083	.00219	.00005475
273.15	.124	.00175	.00004375
283.15	0	.00196	.000049
283.15	.017	.00182	.0000455
283.15	.045	.0015	.0000375
283.15	.065	.00133	.00003325
283.15	.067	.00129	.00003225

System: methane + ethane; phases: Liquid, Gas
Property: Vapor or sublimation pressure, kPa (Liquid); method: Closed cell (Static) method
Temperature, K	Mole fraction of methane	Vapor or sublimation pressure, kPa	uncertainty
93.15	.141	2	7
93.15	.272	4	7
93.15	.465	8	7
93.15	.699	11	7
93.15	1	16	7
133.15	0	4	7
133.15	.194	106	7
133.15	.414	213	7
133.15	.527	261	7
133.15	.821	372	7
133.15	1	438	7
173.15	0	64	7
173.15	.133	389	7
173.15	.139	406	7
173.15	.256	706	7
173.15	.421	1114	7
173.15	.429	1131	7
173.15	.459	1204	7
173.15	.565	1439	7
173.15	.587	1502	7
173.15	.684	1724	7
173.15	.691	1742	7
173.15	.793	1982	7
173.15	.818	2045	7
173.15	.821	2053	7
173.15	1	2600	7
193.15	0	164	7
193.15	.134	717	7
193.15	.16	826	7
193.15	.284	1354	7
193.15	.287	1369	7
193.15	.395	1823	7
193.15	.501	2267	7
193.15	.672	2985	7
193.15	.685	3044	7
213.15	0	397	7
213.15	.024	525	7
213.15	.116	1084	7
213.15	.17	1420	7
213.15	.238	1845	7
213.15	.447	3178	7
213.15	.539	3775	7
233.15	0	791	7
233.15	.075	1398	7
233.15	.143	1953	7
233.15	.153	2036	7
233.15	.214	2551	7
233.15	.228	2664	7
233.15	.292	3212	7
233.15	.297	3257	7
233.15	.362	3820	7
233.15	.369	3884	7
253.15	0	1439	7
253.15	.048	1905	7
253.15	.099	2413	7
253.15	.145	2882	7
253.15	.196	3410	7
253.15	.241	3889	7
253.15	.242	3903	7
263.15	0	1874	7
263.15	.048	2391	7
263.15	.098	2947	7
263.15	.142	3434	7
263.15	.185	3920	7
273.15	0	2404	7
273.15	.035	2823	7
273.15	.083	3408	7
273.15	.124	3871	7
283.15	0	3032	7
283.15	.017	3256	7
283.15	.045	3619	7
283.15	.065	3865	7
283.15	.067	3882	7
