Measured thermophysical data. Thermodynamic properties of aqueous salt containing urea solutions
Source: Fluid Phase Equilib., 2012, 10.1016/j.fluid.2012.04.003
Compound 1: urea, CH4N2O, purity 99%
Compound 2: sodium chloride, ClNa, purity 99.5%
Compound 3: water, H2O, purity 99.8%

System: sodium chloride + water; phases: Liquid
Fixed: Pressure, kPa = 101
Property: Mass density, kg/m3 (Liquid); method: Vibrating tube method
Temperature, K	Mass fraction of sodium chloride	Mass density, kg/m3	uncertainty
293.15	.02	1012.4	.4
293.15	.04	1026.7	.4
303.15	.02	1012.4	.4
303.15	.04	1026.7	.4
313.15	.02	1006.1	.4
313.15	.04	1019.9	.4

System: urea + sodium chloride + water; phases: Liquid
Fixed: Pressure, kPa = 101.3
Property: Mass density, kg/m3 (Liquid); method: Vibrating tube method
Temperature, K	Molality, mol/kg of urea	Molality, mol/kg of sodium chloride	Mass density, kg/m3	uncertainty
293.15	1.5	0	1020.8	.4
293.15	2	0	1027.8	.4
293.15	2.5	0	1034.1	.4
293.15	3	0	1040.5	.4
293.15	0	.1	1002.5	.4
293.15	.5	.1	1010.2	.4
293.15	1	.1	1017.6	.4
293.15	1.5	.1	1024.5	.4
293.15	2	.1	1031.7	.4
293.15	2.5	.1	1037.6	.4
293.15	3	.1	1043.8	.4
293.15	0	.3	1010.7	.4
293.15	.5	.3	1018.1	.4
293.15	1	.3	1025.4	.4
293.15	1.5	.3	1032.1	.4
293.15	2	.3	1038.3	.4
293.15	2.5	.3	1044.7	.4
293.15	3	.3	1050.7	.4
293.15	0	.5	1018.7	.4
293.15	.5	.5	1025.8	.4
293.15	1	.5	1032.6	.4
293.15	1.5	.5	1039.1	.4
293.15	2	.5	1045.5	.4
293.15	2.5	.5	1051.3	.4
293.15	3	.5	1056.9	.4
293.15	0	.7	1026.7	.4
293.15	.5	.7	1033.6	.4
293.15	1	.7	1040.1	.4
293.15	1.5	.7	1046.2	.4
293.15	2	.7	1052.2	.4
293.15	2.5	.7	1057.9	.4
293.15	3	.7	1063.7	.4
293.15	0	1	1038.2	.4
293.15	.5	1	1044.4	.4
293.15	1	1	1050.8	.4
293.15	1.5	1	1056.5	.4
293.15	2	1	1062.6	.4
293.15	2.5	1	1068.1	.4
293.15	3	1	1072.9	.4
303.15	0	0	995.7	.4
303.15	.5	0	1003.4	.4
303.15	1	0	1010.6	.4
303.15	1.5	0	1017.4	.4
303.15	2	0	1024	.4
303.15	2.5	0	1030.3	.4
303.15	3	0	1036.2	.4
303.15	0	.1	999.9	.4
303.15	.5	.1	1007.3	.4
303.15	1	.1	1014.5	.4
303.15	1.5	.1	1021.2	.4
303.15	2	.1	1027.6	.4
303.15	2.5	.1	1033.8	.4
303.15	3	.1	1039.8	.4
303.15	0	.3	1007.8	.4
303.15	.5	.3	1014.9	.4
303.15	1	.3	1021.9	.4
303.15	1.5	.3	1028.3	.4
303.15	2	.3	1034.7	.4
303.15	2.5	.3	1040.6	.4
303.15	3	.3	1046.4	.4
303.15	0	.5	1015.7	.4
303.15	.5	.5	1022.5	.4
303.15	1	.5	1029.2	.4
303.15	1.5	.5	1035.5	.4
303.15	2	.5	1041.5	.4
303.15	2.5	.5	1047.4	.4
303.15	3	.5	1052.8	.4
303.15	0	.7	1023.4	.4
303.15	.5	.7	1029.9	.4
303.15	1	.7	1036.4	.4
303.15	1.5	.7	1042.5	.4
303.15	2	.7	1048.2	.4
303.15	2.5	.7	1053.8	.4
303.15	3	.7	1059.3	.4
303.15	0	1	1034.6	.4
303.15	.5	1	1040.8	.4
303.15	1	1	1047	.4
303.15	1.5	1	1052.6	.4
303.15	2	1	1058.2	.4
303.15	2.5	1	1063.6	.4
303.15	3	1	1068.6	.4
313.15	0	0	992.3	.4
313.15	.5	0	999.7	.4
313.15	1	0	1006.7	.4
313.15	1.5	0	1013.6	.4
313.15	2	0	1019.7	.4
313.15	2.5	0	1026	.4
313.15	3	0	1031.8	.4
313.15	0	.1	996.5	.4
313.15	.5	.1	1003.6	.4
313.15	1	.1	1010.7	.4
313.15	1.5	.1	1017.3	.4
313.15	2	.1	1023.4	.4
313.15	2.5	.1	1029.6	.4
313.15	3	.1	1035.3	.4
313.15	0	.3	1004.3	.4
313.15	.5	.3	1011.1	.4
313.15	1	.3	1017.9	.4
313.15	1.5	.3	1024.2	.4
313.15	2	.3	1030.4	.4
313.15	2.5	.3	1036.2	.4
313.15	3	.3	1041.8	.4
313.15	0	.5	1012.1	.4
313.15	.5	.5	1018.7	.4
313.15	1	.5	1025.2	.4
313.15	1.5	.5	1031.4	.4
313.15	2	.5	1037.1	.4
313.15	2.5	.5	1042.8	.4
313.15	3	.5	1048.3	.4
313.15	0	.7	1019.6	.4
313.15	.5	.7	1026	.4
313.15	1	.7	1032.4	.4
313.15	1.5	.7	1038.3	.4
313.15	2	.7	1043.9	.4
313.15	2.5	.7	1049.4	.4
313.15	3	.7	1054.4	.4
313.15	0	1	1030.7	.4
313.15	.5	1	1036.8	.4
313.15	1	1	1042.9	.4
313.15	1.5	1	1048.4	.4
313.15	2	1	1053.6	.4
313.15	2.5	1	1058.8	.4
313.15	3	1	1064.1	.4
