Measured thermophysical data. Solubility of ethylene in methyl propionate
Source: Fluid Phase Equilib., 2015, 10.1016/j.fluid.2014.12.019
Compound 1: ethylene, C2H4, purity 99.9%
Compound 2: methyl propionate, C4H8O2, purity 99.8%

System: ethylene + methyl propionate; phases: Liquid, Gas
Property: Vapor or sublimation pressure, kPa (Liquid); method: Closed cell (Static) method
Mole fraction of ethylene	Temperature, K	Vapor or sublimation pressure, kPa	uncertainty
.0408	346.42	544	3
.0408	361.37	640	3
.0408	361.68	647	3
.0408	377.25	780	3
.0408	377.36	778	3
.0408	392.64	943	3
.0408	408.06	1144	3
.0408	423.65	1392	3
.0408	439.04	1685	3
.0803	331.19	855	3
.0803	346.27	998	3
.0803	361.64	1158	3
.0803	377.07	1336	3
.0803	392.72	1552	3
.0803	408.06	1795	3
.0803	423.89	2081	3
.0803	439.31	2411	3
.1625	315.63	1468	3
.1625	330.7	1718	3
.1625	346.01	1983	3
.1625	361.43	2263	3
.1625	376.75	2558	3
.1625	392.22	2873	3
.1625	407.71	3209	3
.1625	423.23	3574	3
.1625	438.81	3969	3
.3218	315.27	2887	3
.3218	330.44	3387	3
.3218	345.94	3908	3
.3218	361.1	4428	3
.3218	376.56	4948	3
.3218	392.01	5468	3
.3218	407.72	5989	3
.3218	423.65	6504	3
.3218	439.18	6979	3
.4839	315.68	4336	3
.4839	330.43	5091	3
.4839	330.56	5101	3
.4839	345.67	5881	3
.4839	345.89	5896	3
.4839	361.19	6671	3
.4839	361.29	6681	3
.4839	376.61	7421	3
.4839	376.91	7431	3
.4839	391.98	8116	3
.4839	392.02	8111	3
.4839	407.53	8731	3
.4839	407.72	8746	3
.4839	423.1	9241	3
.4839	423.28	9246	3
.4839	438.87	9556	3
.4839	438.88	9551	3
.4839	454.41	9476	3
.4839	455.37	9451	3
.4839	464.8	9038	3
.6404	315.29	5611	3
.6404	330.5	6681	3
.6404	345.71	7736	3
.6404	361.17	8736	3
.6404	376.55	9611	3
.6404	392.33	10301	3
.6404	407.75	10666	3
.6404	412.78	10716	3
.6404	417.98	10701	3
.6404	423.13	10641	3
.6404	423.32	10646	3
.6404	428.43	10476	3
.8021	297.83	5172	3
.8021	310.19	6237	3
.8021	320.25	7122	3
.8021	330.39	7992	3
.8021	340.61	8802	3
.8021	350.84	9482	3
.8021	355.92	9762	3
.8021	361.01	9997	3
.8021	366.18	10192	3
.8021	369.21	10292	3
.8021	370.27	10322	3
.8021	370.81	10337	3
.9009	283.51	4416	3
.9009	291.33	5101	3
.9009	299.27	5831	3
.9009	307.08	6561	3
.9009	314.94	7266	3
.9009	322.86	7891	3
.9009	326.89	8176	3
.9009	327.8	8236	3
.9009	328.79	8301	3

System: ethylene + methyl propionate; phases: Liquid, Gas
Property: Critical temperature, K (Liquid); method: Visual observation in an unstirred cell
Mole fraction of ethylene	Critical temperature, K	uncertainty
.4839	464.8	.04
.6404	428.43	.04
.8021	370.81	.04
.9009	328.79	.04

System: ethylene + methyl propionate; phases: Liquid, Gas
Property: Critical pressure, kPa (Liquid); method: Direct measurement
Mole fraction of ethylene	Critical pressure, kPa	uncertainty
.4839	9038	3
.6404	10476	3
.8021	10337	3
.9009	8301	3
