Measured thermophysical data. Solubilities of CO2 in aqueous N-methyldiethanolamine and guanidinium trifluoromethanesulfonate ionic liquid systems at elevated pressure
Source: Fluid Phase Equilib., 2010, 10.1016/j.fluid.2010.10.011
Compound 1: carbon dioxide, CO2, purity 99.995%
Compound 2: N-methyldiethanolamine, C5H13NO2, purity 98.5%
Compound 3: water, H2O, purity 99%
Compound 4: guanidinium trifluoromethanesulfonate, C2H6F3N3O3S, purity 98%

System: N-methyldiethanolamine + carbon dioxide + water; phases: Liquid, Gas
Property: Mole fraction of carbon dioxide (Liquid); method: Pressure Change Measurement
Temperature, K	Pressure, kPa	Amount concentration (molarity), mol/dm3 of N-methyldiethanolamine	Mole fraction of carbon dioxide	uncertainty
303.2	345	4.012	.054	.001
303.2	784	4.012	.06	.001
303.2	1429	4.012	.07	.001
303.2	1837	4.012	.073	.001
303.2	2376	4.012	.079	.002
303.2	2861	4.012	.085	.003
323.2	321	4.012	.045	.001
323.2	800	4.012	.054	.001
323.2	1366	4.012	.063	.001
323.2	1822	4.012	.069	.001
323.2	2399	4.012	.074	.002
323.2	2851	4.012	.079	.003
333.2	367	4.012	.01	.001
333.2	821	4.012	.013	.001
333.2	1389	4.012	.015	.001
333.2	1697	4.012	.016	.001
333.2	2416	4.012	.017	.002
333.2	2879	4.012	.018	.003
303.2	450	1.003	.021	.001
303.2	958	1.003	.025	.001
303.2	1451	1.003	.031	.001
303.2	1939	1.003	.034	.001
303.2	2338	1.003	.037	.002
303.2	2937	1.003	.039	.003
323.2	521	1.003	.017	.001
323.2	971	1.003	.021	.001
323.2	1504	1.003	.025	.001
323.2	1913	1.003	.028	.001
323.2	2504	1.003	.032	.002
323.2	2802	1.003	.033	.002
333.2	543	1.003	.015	.001
333.2	964	1.003	.019	.001
333.2	1437	1.003	.026	.001
333.2	1910	1.003	.026	.001
333.2	2386	1.003	.029	.002
333.2	2725	1.003	.03	.002

System: carbon dioxide + water + guanidinium trifluoromethanesulfonate; phases: Liquid, Gas
Fixed: Amount concentration (molarity), mol/dm3 of guanidinium trifluoromethanesulfonate = 1.006
Property: Mole fraction of carbon dioxide (Liquid); method: Pressure Change Measurement
Temperature, K	Pressure, kPa	Mole fraction of carbon dioxide	uncertainty
303.2	489	.01	.001
303.2	921	.015	.001
303.2	1389	.02	.001
303.2	1923	.022	.001
303.2	2317	.027	.002
303.2	2823	.033	.002
323.2	468	.009	.001
323.2	974	.014	.001
323.2	1394	.017	.001
323.2	2115	.021	.001
323.2	2335	.026	.002
323.2	2754	.029	.002
333.2	470	.006	.001
333.2	959	.014	.001
333.2	1411	.014	.001
333.2	1927	.017	.001
333.2	2295	.021	.002
333.2	2801	.025	.003
