Measured thermophysical data. Solubility of glucose, xylose, fructose and galactose in ionic liquids: Experimental and theoretical studies using a continuum solvation model
Source: Fluid Phase Equilib., 2015, 10.1016/j.fluid.2015.03.020
Compound 1: 1-ethyl-3-methylimidazolium thiocyanate, C7H11N3S, purity 99%
Compound 2: tris(2-hydroxyethyl) methylammonium methylsulfate, C8H21NO7S, purity 99%
Compound 3: D-glucose, C6H12O6, purity 99%
Compound 4: D-xylose, C5H10O5, purity 99%
Compound 5: D-fructose, C6H12O6, purity 99%
Compound 6: D-galactose, C6H12O6, purity 99%

System: D-glucose + 1-ethyl-3-methylimidazolium thiocyanate; phases: Liquid, Crystal
Fixed: Pressure, kPa = 100
Property: Mass fraction of D-glucose (Liquid); method: NMR (proton)
Temperature, K	Mass fraction of D-glucose	uncertainty
303.15	.0973	.000973
313.2	.1257	.001257
323.25	.1873	.001873
333.3	.2112	.002112
343.35	.2454	.002454
353.4	.2722	.002722

System: D-xylose + 1-ethyl-3-methylimidazolium thiocyanate; phases: Liquid, Crystal
Fixed: Pressure, kPa = 100
Property: Mass fraction of D-xylose (Liquid); method: NMR (proton)
Temperature, K	Mass fraction of D-xylose	uncertainty
303.15	.1	.001
313.2	.1307	.001307
323.25	.1908	.001908
333.3	.2244	.002244
343.35	.266	.00266
353.4	.305	.00305

System: D-fructose + 1-ethyl-3-methylimidazolium thiocyanate; phases: Liquid, Crystal
Fixed: Pressure, kPa = 100
Property: Mass fraction of D-fructose (Liquid); method: NMR (proton)
Temperature, K	Mass fraction of D-fructose	uncertainty
303.15	.3796	.003796
313.2	.4302	.004302
323.25	.4956	.004956
333.3	.5793	.005793
343.35	.6724	.006724
353.4	.7262	.007262

System: D-galactose + 1-ethyl-3-methylimidazolium thiocyanate; phases: Liquid, Crystal
Fixed: Pressure, kPa = 100
Property: Mass fraction of D-galactose (Liquid); method: NMR (proton)
Temperature, K	Mass fraction of D-galactose	uncertainty
303.15	.0435	.000435
313.2	.0615	.000615
323.25	.0784	.000784
333.3	.1194	.001194
343.35	.1435	.001435
353.4	.1728	.001728

System: D-glucose + tris(2-hydroxyethyl) methylammonium methylsulfate; phases: Liquid, Crystal
Fixed: Pressure, kPa = 100
Property: Mass fraction of D-glucose (Liquid); method: NMR (proton)
Temperature, K	Mass fraction of D-glucose	uncertainty
303.15	.024	.00024
313.2	.0327	.000327
323.25	.0514	.000514
333.3	.0695	.000695
343.35	.087	.00087
353.4	.161	.00161

System: D-xylose + tris(2-hydroxyethyl) methylammonium methylsulfate; phases: Liquid, Crystal
Fixed: Pressure, kPa = 100
Property: Mass fraction of D-xylose (Liquid); method: NMR (proton)
Temperature, K	Mass fraction of D-xylose	uncertainty
303.15	.0284	.000284
313.2	.0411	.000411
323.25	.053	.00053
333.3	.0985	.000985
343.35	.1153	.001153
353.4	.1771	.001771

System: D-fructose + tris(2-hydroxyethyl) methylammonium methylsulfate; phases: Liquid, Crystal
Fixed: Pressure, kPa = 100
Property: Mass fraction of D-fructose (Liquid); method: NMR (proton)
Temperature, K	Mass fraction of D-fructose	uncertainty
303.15	.1338	.001338
313.2	.182	.00182
323.25	.2437	.002437
333.3	.2994	.002994
343.35	.3984	.003984
353.4	.527	.00527

System: D-galactose + tris(2-hydroxyethyl) methylammonium methylsulfate; phases: Liquid, Crystal
Fixed: Pressure, kPa = 100
Property: Mass fraction of D-galactose (Liquid); method: NMR (proton)
Temperature, K	Mass fraction of D-galactose	uncertainty
303.15	.0088	.000088
313.2	.014	.00014
323.25	.0205	.000205
333.3	.022	.00022
343.35	.038	.00038
353.4	.049	.00049
