Measured thermophysical data. Measurement and correlation of solubilities of C.I. Disperse Red 73, C.I. Disperse Yellow 119 and their mixture in supercritical carbon dioxide
Source: Fluid Phase Equilib., 2010, 10.1016/j.fluid.2010.05.026
Compound 1: c.i. disperse red 73, C18H16N6O2, purity 98%
Compound 2: c.i. disperse yellow 119, C20H21BrN6O3, purity 98%
Compound 3: carbon dioxide, CO2, purity 99.5%

System: carbon dioxide + c.i. disperse red 73; phases: Crystal, Fluid (supercritical or subcritical phases)
Property: Mole fraction of c.i. disperse red 73 (Crystal); method: Spectrometry
Temperature, K	Pressure, kPa	Mole fraction of c.i. disperse red 73	uncertainty
343	12000	.000003	.00000039
343	16000	.0000087	.000001131
343	20000	.000013	.00000169
343	24000	.000017	.00000221
343	28000	.00002	.0000026
363	12000	.0000037	.000000481
363	16000	.000011	.00000143
363	20000	.000016	.00000208
363	24000	.000021	.00000273
363	28000	.000023	.00000299
383	12000	.0000053	.000000689
383	16000	.000013	.00000169
383	20000	.000022	.00000286
383	24000	.000026	.00000338
383	28000	.000031	.00000403

System: carbon dioxide + c.i. disperse yellow 119; phases: Crystal, Fluid (supercritical or subcritical phases)
Property: Mole fraction of c.i. disperse yellow 119 (Crystal); method: Spectrometry
Temperature, K	Pressure, kPa	Mole fraction of c.i. disperse yellow 119	uncertainty
343	12000	.0000008	.000000104
343	16000	.0000022	.000000286
343	20000	.0000036	.000000468
343	24000	.0000055	.000000715
343	28000	.0000074	.000000962
363	12000	.0000012	.000000156
363	16000	.0000036	.000000468
363	20000	.0000073	.000000949
363	24000	.000012	.00000156
363	28000	.000016	.00000208
383	12000	.0000028	.000000364
383	16000	.0000058	.000000754
383	20000	.0000098	.000001274
383	24000	.000016	.00000208
383	28000	.00002	.0000026

System: carbon dioxide + c.i. disperse yellow 119 + c.i. disperse red 73; phases: Crystal, Fluid (supercritical or subcritical phases)
Property: Mole fraction of c.i. disperse yellow 119 (Crystal); method: Spectrometry
Temperature, K	Pressure, kPa	Mole fraction of c.i. disperse red 73	Mole fraction of c.i. disperse yellow 119	uncertainty
343	12000	.000002	.0000059	.000000767
343	16000	.0000048	.000011	.00000143
343	20000	.00001	.000017	.00000221
343	24000	.000013	.000022	.00000286
343	28000	.000015	.000028	.00000364
363	12000	.0000031	.000011	.00000143
363	16000	.0000064	.000019	.00000247
363	20000	.000013	.000025	.00000325
363	24000	.000016	.000038	.00000494
363	28000	.000019	.000045	.00000585
383	12000	.000004	.000015	.00000195
383	16000	.0000082	.000027	.00000351
383	20000	.000015	.000035	.00000455
383	24000	.00002	.000048	.00000624
383	28000	.000024	.000053	.00000689

System: carbon dioxide + c.i. disperse yellow 119 + c.i. disperse red 73; phases: Crystal, Fluid (supercritical or subcritical phases)
Property: Mole fraction of c.i. disperse red 73 (Crystal); method: Spectrometry
Temperature, K	Pressure, kPa	Mole fraction of c.i. disperse yellow 119	Mole fraction of c.i. disperse red 73	uncertainty
343	12000	.0000059	.000002	.00000026
343	16000	.000011	.0000048	.000000624
343	20000	.000017	.00001	.0000013
343	24000	.000022	.000013	.00000169
343	28000	.000028	.000015	.00000195
363	12000	.000011	.0000031	.000000403
363	16000	.000019	.0000064	.000000832
363	20000	.000025	.000013	.00000169
363	24000	.000038	.000016	.00000208
363	28000	.000045	.000019	.00000247
383	12000	.000015	.000004	.00000052
383	16000	.000027	.0000082	.000001066
383	20000	.000035	.000015	.00000195
383	24000	.000048	.00002	.0000026
383	28000	.000053	.000024	.00000312
