Measured thermophysical data. Vapor-liquid critical point measurements of fifteen compounds by the pulse-heating method
Source: Fluid Phase Equilib., 2014, 10.1016/j.fluid.2014.07.038
Compound 1: benzoic acid, C7H6O2, purity 99.3%
Compound 2: 2-methylbenzoic acid, C8H8O2, purity 99.9%
Compound 3: 3-methylbenzoic acid, C8H8O2, purity 99.9%
Compound 4: 4-methylbenzoic acid, C8H8O2, purity 99.8%
Compound 5: phenylmethanol, C7H8O, purity 99.9%
Compound 6: 4-methylbenzyl alcohol, C8H10O, purity 99.9%
Compound 7: benzaldehyde, C7H6O, purity 99.8%
Compound 8: 4-methylbenzaldehyde, C8H8O, purity 98.6%
Compound 9: 2-carboxybenzaldehyde, C8H6O3, purity 93.5%
Compound 10: 2,2-dimethyl-1,3-propanediol, C5H12O2, purity 99.9%
Compound 11: 1,3-propanediol, C3H8O2, purity 99.9%
Compound 12: methyl myristate, C15H30O2, purity 99.4%
Compound 13: methyl palmitate, C17H34O2, purity 99.9%
Compound 14: methyl stearate, C19H38O2, purity 98.7%
Compound 15: methyl oleate, C19H36O2, purity 99.6%

System: benzoic acid; phases: Liquid, Gas
Property: Critical temperature, K (Liquid); method: pulse heating to limit of superheat
Critical temperature, K	uncertainty
755	8

System: benzoic acid; phases: Liquid, Gas
Property: Critical pressure, kPa (Liquid); method: pulse heating to limit of superheat
Critical pressure, kPa	uncertainty
4530	100

System: 2-methylbenzoic acid; phases: Liquid, Gas
Property: Critical temperature, K (Liquid); method: pulse heating to limit of superheat
Critical temperature, K	uncertainty
763	8

System: 2-methylbenzoic acid; phases: Liquid, Gas
Property: Critical pressure, kPa (Liquid); method: pulse heating to limit of superheat
Critical pressure, kPa	uncertainty
3920	120

System: 3-methylbenzoic acid; phases: Liquid, Gas
Property: Critical temperature, K (Liquid); method: pulse heating to limit of superheat
Critical temperature, K	uncertainty
771	8

System: 3-methylbenzoic acid; phases: Liquid, Gas
Property: Critical pressure, kPa (Liquid); method: pulse heating to limit of superheat
Critical pressure, kPa	uncertainty
3850	120

System: 4-methylbenzoic acid; phases: Liquid, Gas
Property: Critical temperature, K (Liquid); method: pulse heating to limit of superheat
Critical temperature, K	uncertainty
775	8

System: 4-methylbenzoic acid; phases: Liquid, Gas
Property: Critical pressure, kPa (Liquid); method: pulse heating to limit of superheat
Critical pressure, kPa	uncertainty
3800	100

System: phenylmethanol; phases: Liquid, Gas
Property: Critical temperature, K (Liquid); method: pulse heating to limit of superheat
Critical temperature, K	uncertainty
713	7

System: phenylmethanol; phases: Liquid, Gas
Property: Critical pressure, kPa (Liquid); method: pulse heating to limit of superheat
Critical pressure, kPa	uncertainty
4330	100

System: 4-methylbenzyl alcohol; phases: Liquid, Gas
Property: Critical temperature, K (Liquid); method: pulse heating to limit of superheat
Critical temperature, K	uncertainty
719	7

System: 4-methylbenzyl alcohol; phases: Liquid, Gas
Property: Critical pressure, kPa (Liquid); method: pulse heating to limit of superheat
Critical pressure, kPa	uncertainty
3610	100

System: benzaldehyde; phases: Liquid, Gas
Property: Critical pressure, kPa (Liquid); method: pulse heating to limit of superheat
Critical pressure, kPa	uncertainty
4410	100

System: benzaldehyde; phases: Liquid, Gas
Property: Critical temperature, K (Liquid); method: pulse heating to limit of superheat
Critical temperature, K	uncertainty
692	7

System: 4-methylbenzaldehyde; phases: Liquid, Gas
Property: Critical temperature, K (Liquid); method: pulse heating to limit of superheat
Critical temperature, K	uncertainty
712	7

System: 4-methylbenzaldehyde; phases: Liquid, Gas
Property: Critical pressure, kPa (Liquid); method: pulse heating to limit of superheat
Critical pressure, kPa	uncertainty
3800	100

System: 2-carboxybenzaldehyde; phases: Liquid, Gas
Property: Critical temperature, K (Liquid); method: pulse heating to limit of superheat
Critical temperature, K	uncertainty
864	9

System: 2-carboxybenzaldehyde; phases: Liquid, Gas
Property: Critical pressure, kPa (Liquid); method: pulse heating to limit of superheat
Critical pressure, kPa	uncertainty
4800	150

System: 2,2-dimethyl-1,3-propanediol; phases: Liquid, Gas
Property: Critical temperature, K (Liquid); method: pulse heating to limit of superheat
Critical temperature, K	uncertainty
687	10

System: 2,2-dimethyl-1,3-propanediol; phases: Liquid, Gas
Property: Critical pressure, kPa (Liquid); method: pulse heating to limit of superheat
Critical pressure, kPa	uncertainty
4200	200

System: 1,3-propanediol; phases: Liquid, Gas
Property: Critical temperature, K (Liquid); method: pulse heating to limit of superheat
Critical temperature, K	uncertainty
721	11

System: 1,3-propanediol; phases: Liquid, Gas
Property: Critical pressure, kPa (Liquid); method: pulse heating to limit of superheat
Critical pressure, kPa	uncertainty
6380	260

System: methyl myristate; phases: Liquid, Gas
Property: Critical temperature, K (Liquid); method: pulse heating to limit of superheat
Critical temperature, K	uncertainty
730	7

System: methyl myristate; phases: Liquid, Gas
Property: Critical pressure, kPa (Liquid); method: pulse heating to limit of superheat
Critical pressure, kPa	uncertainty
1320	40

System: methyl palmitate; phases: Liquid, Gas
Property: Critical temperature, K (Liquid); method: pulse heating to limit of superheat
Critical temperature, K	uncertainty
760	8

System: methyl palmitate; phases: Liquid, Gas
Property: Critical pressure, kPa (Liquid); method: pulse heating to limit of superheat
Critical pressure, kPa	uncertainty
1170	40

System: methyl stearate; phases: Liquid, Gas
Property: Critical temperature, K (Liquid); method: pulse heating to limit of superheat
Critical temperature, K	uncertainty
785	8

System: methyl stearate; phases: Liquid, Gas
Property: Critical pressure, kPa (Liquid); method: pulse heating to limit of superheat
Critical pressure, kPa	uncertainty
1080	30

System: methyl oleate; phases: Liquid, Gas
Property: Critical temperature, K (Liquid); method: pulse heating to limit of superheat
Critical temperature, K	uncertainty
777	8

System: methyl oleate; phases: Liquid, Gas
Property: Critical pressure, kPa (Liquid); method: pulse heating to limit of superheat
Critical pressure, kPa	uncertainty
1210	40
