Measured thermophysical data. Densities and dynamic viscosities of (choline chloride + glycerol) deep eutectic solvent and its aqueous mixtures in the temperature range (283.15-363.15) K
Source: Fluid Phase Equilib., 2014, 10.1016/j.fluid.2014.01.028
Compound 1: water, H2O
Compound 2: choline chloride, C5H14ClNO, purity 99%
Compound 3: glycerol, C3H8O3, purity 99.5%

System: glycerol + choline chloride + water; phases: Liquid
Fixed: Pressure, kPa = 101
Fixed: Solvent: Mole fraction of choline chloride = .333
Property: Mass density, kg/m3 (Liquid); method: Vibrating tube method
Mole fraction of water	Temperature, K	Mass density, kg/m3	uncertainty
0	283.15	1200.1	.05
.108	283.15	1196.9	.05
.2381	283.15	1191.6	.05
.3425	283.15	1186	.05
.4022	283.15	1182.2	.05
.5978	283.15	1163.1	.05
.7199	283.15	1142.9	.05
.7997	283.15	1122.3	.05
.8574	283.15	1101.3	.05
.9007	283.15	1079.8	.05
.9335	283.15	1059.3	.05
.9602	283.15	1039	.05
.9819	283.15	1019.2	.05
1	283.15	999.7	.05
0	293.15	1194.3	.05
.108	293.15	1191.1	.05
.2381	293.15	1185.8	.05
.3425	293.15	1180.2	.05
.4022	293.15	1176.5	.05
.5978	293.15	1157.7	.05
.7199	293.15	1137.7	.05
.7997	293.15	1117.4	.05
.8574	293.15	1096.9	.05
.9007	293.15	1075.8	.05
.9335	293.15	1055.9	.05
.9602	293.15	1036.2	.05
.9819	293.15	1017.1	.05
1	293.15	998.2	.05
0	303.15	1188.5	.05
.108	303.15	1185.3	.05
.2381	303.15	1180	.05
.3425	303.15	1174.6	.05
.4022	303.15	1170.9	.05
.5978	303.15	1152.3	.05
.7199	303.15	1132.5	.05
.7997	303.15	1112.4	.05
.8574	303.15	1092.2	.05
.9007	303.15	1071.5	.05
.9335	303.15	1052	.05
.9602	303.15	1032.8	.05
.9819	303.15	1014	.05
1	303.15	995.7	.05
0	313.15	1182.7	.05
.108	313.15	1179.5	.05
.2381	313.15	1174.4	.05
.3425	313.15	1169	.05
.4022	313.15	1165.3	.05
.5978	313.15	1146.8	.05
.7199	313.15	1127.1	.05
.7997	313.15	1107.2	.05
.8574	313.15	1087.2	.05
.9007	313.15	1066.8	.05
.9335	313.15	1047.6	.05
.9602	313.15	1028.7	.05
.9819	313.15	1010.2	.05
1	313.15	992.2	.05
0	323.15	1177	.05
.108	323.15	1173.9	.05
.2381	323.15	1168.8	.05
.3425	323.15	1163.4	.05
.4022	323.15	1159.7	.05
.5978	323.15	1141.3	.05
.7199	323.15	1121.6	.05
.7997	323.15	1101.8	.05
.8574	323.15	1081.9	.05
.9007	323.15	1061.7	.05
.9335	323.15	1042.7	.05
.9602	323.15	1024	.05
.9819	323.15	1005.5	.05
1	323.15	988.1	.05
0	333.15	1171.3	.05
.108	333.15	1168.2	.05
.2381	333.15	1163.1	.05
.3425	333.15	1157.7	.05
.4022	333.15	1154.1	.05
.5978	333.15	1135.7	.05
.7199	333.15	1116.1	.05
.7997	333.15	1096.4	.05
.8574	333.15	1076.7	.05
.9007	333.15	1056.6	.05
.9335	333.15	1037.6	.05
.9602	333.15	1019.1	.05
.9819	333.15	1000.6	.05
1	333.15	983.3	.05
0	343.15	1164.8	.05
.108	343.15	1161.7	.05
.2381	343.15	1156.6	.05
.3425	343.15	1151.3	.05
.4022	343.15	1147.7	.05
.5978	343.15	1129.4	.05
.7199	343.15	1109.9	.05
.7997	343.15	1090.4	.05
.8574	343.15	1070.7	.05
.9007	343.15	1050.7	.05
.9335	343.15	1031.9	.05
.9602	343.15	1013.4	.05
.9819	343.15	995.1	.05
1	343.15	977.8	.05
0	353.15	1157.5	.05
.108	353.15	1154.5	.05
.2381	353.15	1149.4	.05
.3425	353.15	1144.1	.05
.4022	353.15	1140.6	.05
.5978	353.15	1122.4	.05
.7199	353.15	1103	.05
.7997	353.15	1083.6	.05
.8574	353.15	1064	.05
.9007	353.15	1044.1	.05
.9335	353.15	1025.5	.05
.9602	353.15	1007.1	.05
.9819	353.15	988.9	.05
1	353.15	971.7	.05
0	363.15	1149.5	.05
.108	363.15	1146.5	.05
.2381	363.15	1141.4	.05
.3425	363.15	1136.2	.05
.4022	363.15	1132.7	.05
.5978	363.15	1114.6	.05
.7199	363.15	1095.4	.05
.7997	363.15	1076.1	.05
.8574	363.15	1056.7	.05
.9007	363.15	1036.9	.05
.9335	363.15	1018.3	.05
.9602	363.15	1000.1	.05
.9819	363.15	982	.05
1	363.15	965	.05

System: glycerol + choline chloride + water; phases: Liquid
Fixed: Pressure, kPa = 101
Fixed: Solvent: Mole fraction of choline chloride = .333
Property: Viscosity, Pa*s (Liquid); method: Falling or rolling sphere viscometry
Temperature, K	Mole fraction of water	Viscosity, Pa*s	uncertainty
283.15	0	1.0039428	.010039428
283.15	.108	.6699038	.006699038
283.15	.2381	.3971261	.003971261
283.15	.3425	.2390806	.002390806
283.15	.4022	.1779621	.001779621
283.15	.5978	.0546306	.000546306
283.15	.7199	.0218137	.000218137
283.15	.7997	.0113182	.000113182
283.15	.8574	.0060668	.000060668
283.15	.9007	.0038894	.000038894
283.15	.9335	.0026941	.000026941
283.15	.9602	.0020141	.000020141
283.15	.9819	.0015754	.000015754
283.15	1	.0012739	.000012739
293.15	0	.4729671	.004729671
293.15	.108	.3226054	.003226054
293.15	.2381	.2004529	.002004529
293.15	.3425	.1259387	.001259387
293.15	.4022	.0959405	.000959405
293.15	.5978	.0328956	.000328956
293.15	.7199	.0143726	.000143726
293.15	.7997	.0076483	.000076483
293.15	.8574	.0043516	.000043516
293.15	.9007	.0028657	.000028657
293.15	.9335	.0020191	.000020191
293.15	.9602	.0015294	.000015294
293.15	.9819	.0012065	.000012065
293.15	1	.0009836	.000009836
303.15	0	.2467928	.002467928
303.15	.108	.1728659	.001728659
303.15	.2381	.1053949	.001053949
303.15	.3425	.0721121	.000721121
303.15	.4022	.0564675	.000564675
303.15	.5978	.0213567	.000213567
303.15	.7199	.0100548	.000100548
303.15	.7997	.0056483	.000056483
303.15	.8574	.0032576	.000032576
303.15	.9007	.0021977	.000021977
303.15	.9335	.0015742	.000015742
303.15	.9602	.0012059	.000012059
303.15	.9819	.0009611	.000009611
303.15	1	.0007914	.000007914
313.15	0	.1333749	.001333749
313.15	.108	.097607	.00097607
313.15	.2381	.0636328	.000636328
313.15	.3425	.0449472	.000449472
313.15	.4022	.0358177	.000358177
313.15	.5978	.014735	.00014735
313.15	.7199	.0070999	.000070999
313.15	.7997	.0038621	.000038621
313.15	.8574	.0025277	.000025277
313.15	.9007	.0017433	.000017433
313.15	.9335	.0012652	.000012652
313.15	.9602	.0009808	.000009808
313.15	.9819	.0007902	.000007902
313.15	1	.0006492	.000006492
323.15	0	.0815895	.000815895
323.15	.108	.0608033	.000608033
323.15	.2381	.0416544	.000416544
323.15	.3425	.0297991	.000297991
323.15	.4022	.0240906	.000240906
323.15	.5978	.0106386	.000106386
323.15	.7199	.005076	.00005076
323.15	.7997	.0030075	.000030075
323.15	.8574	.0020196	.000020196
323.15	.9007	.0014169	.000014169
323.15	.9335	.0010444	.000010444
323.15	.9602	.0008193	.000008193
323.15	.9819	.0006578	.000006578
323.15	1	.0005487	.000005487
333.15	0	.0538117	.000538117
333.15	.108	.0393459	.000393459
333.15	.2381	.0282346	.000282346
333.15	.3425	.0208106	.000208106
333.15	.4022	.0171371	.000171371
333.15	.5978	.0077082	.000077082
333.15	.7199	.0039458	.000039458
333.15	.7997	.0024063	.000024063
333.15	.8574	.0016547	.000016547
333.15	.9007	.0011824	.000011824
333.15	.9335	.0008829	.000008829
333.15	.9602	.0006999	.000006999
333.15	.9819	.0005652	.000005652
333.15	1	.000477	.00000477
343.15	0	.0367409	.000367409
343.15	.108	.027497	.00027497
343.15	.2381	.0201102	.000201102
343.15	.3425	.0152347	.000152347
343.15	.4022	.0126879	.000126879
343.15	.5978	.0056748	.000056748
343.15	.7199	.0031519	.000031519
343.15	.7997	.0019711	.000019711
343.15	.8574	.0013842	.000013842
343.15	.9007	.001004	.00001004
343.15	.9335	.0007359	.000007359
343.15	.9602	.0006006	.000006006
343.15	.9819	.0004876	.000004876
343.15	1	.0004354	.000004354
353.15	0	.0263331	.000263331
353.15	.108	.0200963	.000200963
353.15	.2381	.0149828	.000149828
353.15	.3425	.011586	.00011586
353.15	.4022	.0095736	.000095736
353.15	.5978	.0044946	.000044946
353.15	.7199	.0025717	.000025717
353.15	.7997	.0016472	.000016472
353.15	.8574	.0011855	.000011855
353.15	.9007	.0008822	.000008822
353.15	.9335	.0006654	.000006654
353.15	.9602	.0005212	.000005212
353.15	.9819	.0004353	.000004353
353.15	1	.000386	.00000386
363.15	0	.0195866	.000195866
363.15	.108	.0152351	.000152351
363.15	.2381	.0114031	.000114031
363.15	.3425	.0090466	.000090466
363.15	.4022	.0075048	.000075048
363.15	.5978	.0036385	.000036385
363.15	.7199	.0021426	.000021426
363.15	.7997	.0013986	.000013986
363.15	.8574	.0010262	.000010262
363.15	.9007	.0007702	.000007702
363.15	.9335	.0006145	.000006145
363.15	.9602	.0004654	.000004654
363.15	.9819	.0003862	.000003862
363.15	1	.0003306	.000003306
