Measured thermophysical data. Viscosity of (C2-C14) 1-alkyl-3-methylimidazolium  bis(trifluoromethylsulfonyl)amide ionic liquids in an extended temperature range
Source: Fluid Phase Equilib., 2011, 10.1016/j.fluid.2010.10.018
Compound 1: 1-ethyl-3-methylimidazolium bis[(trifluoromethyl)sulfonyl]imide, C8H11F6N3O4S2
Compound 2: 1-methyl-3-propylimidazolium bis[(trifluoromethyl)sulfonyl]imide, C9H13F6N3O4S2
Compound 3: 1-butyl-3-methylimidazolium bis[(trifluoromethyl)sulfonyl]imide, C10H15F6N3O4S2, purity 99%
Compound 4: 1-pentyl-3-methylimidazolium bis(trifluoromethylsulfonyl)amide, C11H17F6N3O4S2, purity 99%
Compound 5: 1-hexyl-3-methylimidazolium bis[(trifluoromethyl)sulfonyl]imide, C12H19F6N3O4S2
Compound 6: 1-heptyl-3-methylimidazolium bis(trifluoromethylsulfonyl)amide, C13H21F6N3O4S2, purity 99%
Compound 7: 1-octyl-3-methylimidazolium bis[(trifluoromethyl)sulfonyl]imide, C14H23F6N3O4S2, purity 99%
Compound 8: 1-nonyl-3-methylimidazolium bis((trifluoromethyl)sulfonyl)imide, C14H23F6N3O4S2, purity 99%
Compound 9: 1-decyl-3-methylimidazolium bis(trifluoromethylsulfonyl)amide, C16H27F6N3O4S2, purity 99%
Compound 10: 1-dodecyl-3-methyl-1H-imidazolium bis(trifluoromethylsulfonyl)amide, C18H31F6N3O4S2, purity 99%
Compound 11: 1-tetradecyl-3-methylimidazolium bis(trifluoromethylsulfonyl)imide, C20H35F6N3O4S2, purity 99%

System: 1-ethyl-3-methylimidazolium bis[(trifluoromethyl)sulfonyl]imide; phases: Liquid
Fixed: Pressure, kPa = 101.325
Property: Viscosity, Pa*s (Liquid); method: Concentric cylinders viscometry
Temperature, K	Viscosity, Pa*s	uncertainty
278	.076049	.00152098
283	.060146	.00120292
288	.048468	.00096936
293	.039707	.00079414
298	.033001	.00066002
303	.027781	.00055562
308	.023663	.00047326
313	.020367	.00040734
318	.017693	.00035386
323	.015499	.00030998
328	.013679	.00027358
333	.012158	.00024316
338	.010873	.00021746
343	.009784	.00019568
348	.008848	.00017696
353	.008041	.00016082
358	.00734	.0001468

System: 1-ethyl-3-methylimidazolium bis[(trifluoromethyl)sulfonyl]imide; phases: Liquid
Fixed: Pressure, kPa = 101.325
Property: Viscosity, Pa*s (Liquid); method: Falling or rolling sphere viscometry
Temperature, K	Viscosity, Pa*s	uncertainty
283	.059803	.00119606
293	.039545	.0007909
313	.020488	.00040976
333	.012416	.00024832
353	.008036	.00016072

System: 1-methyl-3-propylimidazolium bis[(trifluoromethyl)sulfonyl]imide; phases: Liquid
Fixed: Pressure, kPa = 101.325
Property: Viscosity, Pa*s (Liquid); method: Concentric cylinders viscometry
Temperature, K	Viscosity, Pa*s	uncertainty
278	.12217	.0024434
283	.092601	.00185202
288	.071782	.00143564
293	.056782	.00113564
298	.045748	.00091496
303	.03743	.0007486
308	.031074	.00062148
313	.026131	.00052262
318	.022229	.00044458
323	.019106	.00038212
328	.016583	.00033166
333	.014503	.00029006
338	.012786	.00025572
343	.011353	.00022706
348	.010145	.0002029
353	.0091181	.000182362
358	.0082402	.000164804

System: 1-methyl-3-propylimidazolium bis[(trifluoromethyl)sulfonyl]imide; phases: Liquid
Fixed: Pressure, kPa = 101.325
Property: Viscosity, Pa*s (Liquid); method: Falling or rolling sphere viscometry
Temperature, K	Viscosity, Pa*s	uncertainty
293	.056402	.00112804
313	.026167	.00052334
333	.014821	.00029642
353	.009251	.00018502
373	.00632	.0001264

System: 1-butyl-3-methylimidazolium bis[(trifluoromethyl)sulfonyl]imide; phases: Liquid
Fixed: Pressure, kPa = 101.325
Property: Viscosity, Pa*s (Liquid); method: Concentric cylinders viscometry
Temperature, K	Viscosity, Pa*s	uncertainty
278	.13762	.0027524
283	.10414	.0020828
288	.080163	.00160326
293	.06299	.0012598
298	.050618	.00101236
303	.041122	.00082244
308	.033892	.00067784
313	.028279	.00056558
318	.023919	.00047838
323	.020449	.00040898
328	.017665	.0003533
333	.015376	.00030752
338	.013497	.00026994
343	.011928	.00023856
348	.010612	.00021224

System: 1-butyl-3-methylimidazolium bis[(trifluoromethyl)sulfonyl]imide; phases: Liquid
Fixed: Pressure, kPa = 101.325
Property: Viscosity, Pa*s (Liquid); method: Falling or rolling sphere viscometry
Temperature, K	Viscosity, Pa*s	uncertainty
293	.063049	.00126098
313	.028632	.00057264
333	.016005	.0003201
353	.009911	.00019822
373	.006548	.00013096
393	.004785	.0000957

System: 1-pentyl-3-methylimidazolium bis(trifluoromethylsulfonyl)amide; phases: Liquid
Fixed: Pressure, kPa = 101.325
Property: Viscosity, Pa*s (Liquid); method: Concentric cylinders viscometry
Temperature, K	Viscosity, Pa*s	uncertainty
278	.16473	.0032946
283	.12309	.0024618
288	.093651	.00187302
293	.072763	.00145526
298	.057806	.00115612
303	.046383	.00092766
308	.03792	.0007584
313	.031428	.00062856
318	.026375	.0005275
323	.022396	.00044792
328	.019198	.00038396
333	.016604	.00033208
338	.01448	.0002896
343	.012729	.00025458
348	.011267	.00022534

System: 1-pentyl-3-methylimidazolium bis(trifluoromethylsulfonyl)amide; phases: Liquid
Fixed: Pressure, kPa = 101.325
Property: Viscosity, Pa*s (Liquid); method: Falling or rolling sphere viscometry
Temperature, K	Viscosity, Pa*s	uncertainty
283	.133334	.00266668
293	.07844	.0015688
313	.03394	.0006788
333	.01852	.0003704
353	.01089	.0002178
373	.00719	.0001438
393	.00515	.000103

System: 1-hexyl-3-methylimidazolium bis[(trifluoromethyl)sulfonyl]imide; phases: Liquid
Fixed: Pressure, kPa = 101.325
Property: Viscosity, Pa*s (Liquid); method: Concentric cylinders viscometry
Temperature, K	Viscosity, Pa*s	uncertainty
278	.2123	.004246
283	.15594	.0031188
288	.11729	.0023458
293	.09013	.0018026
298	.070614	.00141228
303	.056298	.00112596
308	.045606	.00091212
313	.037467	.00074934
318	.031187	.00062374
323	.026254	.00052508
328	.022346	.00044692
333	.019203	.00038406
338	.016648	.00033296
343	.014549	.00029098
348	.012809	.00025618
353	.011354	.00022708
358	.010128	.00020256

System: 1-hexyl-3-methylimidazolium bis[(trifluoromethyl)sulfonyl]imide; phases: Liquid
Fixed: Pressure, kPa = 101.325
Property: Viscosity, Pa*s (Liquid); method: Falling or rolling sphere viscometry
Temperature, K	Viscosity, Pa*s	uncertainty
293	.08784	.0017568
313	.03708	.0007416
333	.01929	.0003858
353	.01148	.0002296
373	.00746	.0001492
393	.00528	.0001056

System: 1-heptyl-3-methylimidazolium bis(trifluoromethylsulfonyl)amide; phases: Liquid
Fixed: Pressure, kPa = 101.325
Property: Viscosity, Pa*s (Liquid); method: Concentric cylinders viscometry
Temperature, K	Viscosity, Pa*s	uncertainty
278	.235	.0047
283	.18282	.0036564
288	.13642	.0027284
293	.10417	.0020834
298	.081111	.00162222
303	.064284	.00128568
308	.051751	.00103502
313	.042282	.00084564
318	.034994	.00069988
323	.029302	.00058604
328	.024807	.00049614
333	.021203	.00042406
338	.018303	.00036606
343	.015919	.00031838
348	.013948	.00027896
353	.012307	.00024614
358	.010926	.00021852
363	.0097529	.000195058

System: 1-octyl-3-methylimidazolium bis[(trifluoromethyl)sulfonyl]imide; phases: Liquid
Fixed: Pressure, kPa = 101.325
Property: Viscosity, Pa*s (Liquid); method: Concentric cylinders viscometry
Temperature, K	Viscosity, Pa*s	uncertainty
278	.29703	.0059406
283	.21479	.0042958
288	.15911	.0031822
293	.12046	.0024092
298	.093053	.00186106
303	.073199	.00146398
308	.05853	.0011706
313	.047504	.00095008
318	.039086	.00078172
323	.032559	.00065118
328	.027431	.00054862
333	.023346	.00046692
338	.020057	.00040114
343	.017379	.00034758
348	.015179	.00030358
353	.013353	.00026706
358	.011825	.0002365

System: 1-nonyl-3-methylimidazolium bis((trifluoromethyl)sulfonyl)imide; phases: Liquid
Fixed: Pressure, kPa = 101.325
Property: Viscosity, Pa*s (Liquid); method: Capillary tube (Ostwald; Ubbelohde) method
Temperature, K	Viscosity, Pa*s	uncertainty
278	.3482	.006964
283	.2497	.004994
288	.18388	.0036776
293	.13855	.002771
298	.10641	.0021282
303	.083354	.00166708
308	.066198	.00132396
313	.053426	.00106852
318	.043762	.00087524
323	.036279	.00072558
328	.030429	.00060858
333	.025775	.0005155
338	.022119	.00044238
343	.019091	.00038182
348	.016614	.00033228
353	.01453	.0002906
358	.012823	.00025646
363	.011401	.00022802

System: 1-decyl-3-methylimidazolium bis(trifluoromethylsulfonyl)amide; phases: Liquid
Fixed: Pressure, kPa = 101.325
Property: Viscosity, Pa*s (Liquid); method: Concentric cylinders viscometry
Temperature, K	Viscosity, Pa*s	uncertainty
278	.4032	.008064
283	.28762	.0057524
288	.21053	.0042106
293	.15752	.0031504
298	.12018	.0024036
303	.09345	.001869
308	.073917	.00147834
313	.059369	.00118738
318	.048363	.00096726
323	.03991	.0007982
328	.033323	.00066646
333	.028124	.00056248
338	.023971	.00047942
343	.020617	.00041234
348	.01788	.0003576
353	.015626	.00031252
358	.013753	.00027506

System: 1-decyl-3-methylimidazolium bis(trifluoromethylsulfonyl)amide; phases: Liquid
Fixed: Pressure, kPa = 101.325
Property: Viscosity, Pa*s (Liquid); method: Falling or rolling sphere viscometry
Temperature, K	Viscosity, Pa*s	uncertainty
283	.292436	.00584872
293	.159414	.00318828
313	.060505	.0012101
333	.029304	.00058608
353	.016138	.00032276
373	.010001	.00020002
393	.0068	.000136

System: 1-dodecyl-3-methyl-1H-imidazolium bis(trifluoromethylsulfonyl)amide; phases: Liquid
Fixed: Pressure, kPa = 101.325
Property: Viscosity, Pa*s (Liquid); method: Concentric cylinders viscometry
Temperature, K	Viscosity, Pa*s	uncertainty
283	.38451	.0076902
288	.27746	.0055492
293	.205	.0041
298	.15433	.0030866
303	.11868	.0023736
308	.093714	.00187428
313	.074488	.00148976
318	.060079	.00120158
323	.049107	.00098214
328	.040636	.00081272
333	.034008	.00068016
338	.028756	.00057512
343	.024546	.00049092
348	.021136	.00042272
353	.018352	.00036704
358	.016047	.00032094
363	.014125	.0002825

System: 1-tetradecyl-3-methylimidazolium bis(trifluoromethylsulfonyl)imide; phases: Liquid
Fixed: Pressure, kPa = 101.325
Property: Viscosity, Pa*s (Liquid); method: Concentric cylinders viscometry
Temperature, K	Viscosity, Pa*s	uncertainty
313	.098043	.00196086
318	.078061	.00156122
323	.063095	.0012619
328	.051681	.00103362
333	.042827	.00085654
338	.035866	.00071732
343	.030355	.0006071
348	.025926	.00051852
353	.022332	.00044664
358	.019385	.0003877
363	.016951	.00033902
