Measured thermophysical data. Measurement of VLE data of carbon dioxide + dimethyl carbonate system for the direct synthesis of dimethyl carbonate using supercritical CO2 and methanol
Source: Fluid Phase Equilib., 2012, 10.1016/j.fluid.2012.01.020
Compound 1: carbon dioxide, CO2, purity 99%
Compound 2: dimethyl carbonate, C3H6O3, purity 99%

System: carbon dioxide + dimethyl carbonate; phases: Gas, Liquid
Property: Vapor or sublimation pressure, kPa (Gas); method: Closed cell (Static) method
Mole fraction of carbon dioxide	Temperature, K	Vapor or sublimation pressure, kPa	uncertainty
.0348	293.15	189.6	1
.1903	293.15	930.8	1
.3104	293.15	1396.2	1
.4719	293.15	2302.8	1
.6465	293.15	3254.3	1
.7752	293.15	3985.2	1
.861	293.15	4516.1	1
.9158	293.15	4964.2	1
1	293.15	5719.9	1
.0471	303.15	241.3	1
.1775	303.15	979.1	1
.2641	303.15	1434.1	1
.4741	303.15	2826.8	1
.6671	303.15	4067.9	1
.7905	303.15	4981.4	1
.8517	303.15	5550.3	1
.9326	303.15	6412.1	1
1	303.15	7195	1
.0607	313.15	393	1
.128	313.15	861.8	1
.2469	313.15	1654.7	1
.4293	313.15	3047.5	1
.5351	313.15	3826.6	1
.6815	313.15	4964.2	1
.796	313.15	5998.4	1
.8675	313.15	6722.4	1
.9311	313.15	7542.8	1
.0357	323.15	289.6	1
.1372	323.15	1151.4	1
.2679	323.15	2220.1	1
.4049	323.15	3392.2	1
.5008	323.15	4281.6	1
.6428	323.15	5612.3	1
.7702	323.15	6825.8	1
.8558	323.15	7818.6	1
.9101	323.15	8549.5	1
.0567	333.15	620.5	1
.217	333.15	1978.8	1
.3496	333.15	3378.4	1
.5484	333.15	5353	1
.6474	333.15	6467.3	1
.7894	333.15	8232.3	1
.8545	333.15	9183.8	1
.8715	333.15	9445.8	1

System: carbon dioxide + dimethyl carbonate; phases: Gas, Liquid
Property: Mole fraction of carbon dioxide (Gas); method: Chromatography
Mole fraction of carbon dioxide	Temperature, K	Mole fraction of carbon dioxide	uncertainty
.0348	293.15	.9591	.002
.1903	293.15	.9904	.002
.3104	293.15	.9924	.002
.4719	293.15	.9937	.002
.6465	293.15	.9955	.002
.7752	293.15	.9966	.002
.861	293.15	.9973	.002
.9158	293.15	.9977	.002
1	293.15	1	.002
.0471	303.15	.9611	.002
.1775	303.15	.9851	.002
.2641	303.15	.9883	.002
.4741	303.15	.992	.002
.6671	303.15	.9948	.002
.7905	303.15	.9956	.002
.8517	303.15	.996	.002
.9326	303.15	.9966	.002
1	303.15	1	.002
.0607	313.15	.958	.002
.128	313.15	.975	.002
.2469	313.15	.9828	.002
.4293	313.15	.9893	.002
.5351	313.15	.9916	.002
.6815	313.15	.9932	.002
.796	313.15	.9937	.002
.8675	313.15	.9942	.002
.9311	313.15	.9944	.002
.0357	323.15	.8852	.002
.1372	323.15	.9728	.002
.2679	323.15	.9805	.002
.4049	323.15	.9833	.002
.5008	323.15	.9867	.002
.6428	323.15	.9893	.002
.7702	323.15	.9903	.002
.8558	323.15	.9903	.002
.9101	323.15	.9892	.002
.0567	333.15	.9351	.002
.217	333.15	.9741	.002
.3496	333.15	.9798	.002
.5484	333.15	.9837	.002
.6474	333.15	.9845	.002
.7894	333.15	.9855	.002
.8545	333.15	.9832	.002
.8715	333.15	.9821	.002
