Measured thermophysical data. Determination of Activity Coefficients at Infinite Dilution of 35 Solutes in the Ionic Liquid, 1-Butyl-3-methylimidazolium Tosylate, Using Gas-Liquid Chromatography
Source: J. Chem. Eng. Data, 2010, 10.1021/je100410k
Compound 1: 1-butyl-3-methylimidazolium tosylate, C15H22N2O3S, purity 97%
Compound 2: n-hexane, C6H14
Compound 3: heptane, C7H16
Compound 4: octane, C8H18
Compound 5: nonane, C9H20
Compound 6: decane, C10H22
Compound 7: cyclopentane, C5H10
Compound 8: cyclohexane, C6H12
Compound 9: cycloheptane, C7H14
Compound 10: cyclooctane, C8H16
Compound 11: 1-pentene, C5H10
Compound 12: 1-hexene, C6H12
Compound 13: 1-heptene, C7H14
Compound 14: 1-octene, C8H16
Compound 15: 1-hexyne, C6H10
Compound 16: 1-heptyne, C7H12
Compound 17: 1-octyne, C8H14
Compound 18: benzene, C6H6
Compound 19: toluene, C7H8
Compound 20: ethylbenzene, C8H10
Compound 21: 1,2-dimethylbenzene, C8H10
Compound 22: 1,3-dimethylbenzene, C8H10
Compound 23: 1,4-dimethylbenzene, C8H10
Compound 24: methanol, CH4O
Compound 25: ethanol, C2H6O
Compound 26: propan-1-ol, C3H8O
Compound 27: water, H2O
Compound 28: thiophene, C4H4S
Compound 29: tetramethylene oxide, C4H8O
Compound 30: methyl tert-butyl ether, C5H12O
Compound 31: ethane, 1,1'-oxybis-, C4H10O
Compound 32: dipropyl ether, C6H14O
Compound 33: dibutyl ether, C8H18O
Compound 34: propanone, C3H6O
Compound 35: propyl methyl ketone, C5H10O
Compound 36: 3-pentanone, C5H10O

System: n-hexane + 1-butyl-3-methylimidazolium tosylate; phases: Liquid
Fixed: Pressure, kPa = 101
Fixed: Mole fraction of n-hexane = 0
Property: Activity coefficient of n-hexane (Liquid); method: Chromatography
Temperature, K	Activity coefficient of n-hexane	uncertainty
338.15	36.3	1.089
348.15	31.5	.945
358.15	29.2	.876
368.15	27.6	.828

System: heptane + 1-butyl-3-methylimidazolium tosylate; phases: Liquid
Fixed: Pressure, kPa = 101
Fixed: Mole fraction of heptane = 0
Property: Activity coefficient of heptane (Liquid); method: Chromatography
Temperature, K	Activity coefficient of heptane	uncertainty
338.15	48.1	1.443
348.15	42.2	1.266
358.15	39.2	1.176
368.15	36.6	1.098

System: octane + 1-butyl-3-methylimidazolium tosylate; phases: Liquid
Fixed: Pressure, kPa = 101
Fixed: Mole fraction of octane = 0
Property: Activity coefficient of octane (Liquid); method: Chromatography
Temperature, K	Activity coefficient of octane	uncertainty
338.2	63.9	1.917
348.2	57.7	1.731
358.2	53	1.59
368.2	49.6	1.488

System: nonane + 1-butyl-3-methylimidazolium tosylate; phases: Liquid
Fixed: Pressure, kPa = 101
Fixed: Mole fraction of nonane = 0
Property: Activity coefficient of nonane (Liquid); method: Chromatography
Temperature, K	Activity coefficient of nonane	uncertainty
338.2	86.1	2.583
348.2	77.5	2.325
358.2	71.3	2.139
368.2	66.5	1.995

System: decane + 1-butyl-3-methylimidazolium tosylate; phases: Liquid
Fixed: Pressure, kPa = 101
Fixed: Mole fraction of decane = 0
Property: Activity coefficient of decane (Liquid); method: Chromatography
Temperature, K	Activity coefficient of decane	uncertainty
338.2	118.7	3.561
348.2	106.5	3.195
358.2	98.3	2.949
368.2	90.8	2.724

System: cyclopentane + 1-butyl-3-methylimidazolium tosylate; phases: Liquid
Fixed: Pressure, kPa = 101
Fixed: Mole fraction of cyclopentane = 0
Property: Activity coefficient of cyclopentane (Liquid); method: Chromatography
Temperature, K	Activity coefficient of cyclopentane	uncertainty
338.2	11.3	.339
348.2	9.9	.297
358.2	9.3	.279
368.2	9	.27

System: cyclohexane + 1-butyl-3-methylimidazolium tosylate; phases: Liquid
Fixed: Pressure, kPa = 101
Fixed: Mole fraction of cyclohexane = 0
Property: Activity coefficient of cyclohexane (Liquid); method: Chromatography
Temperature, K	Activity coefficient of cyclohexane	uncertainty
338.2	16.3	.489
348.2	14.6	.438
358.2	13.4	.402
368.2	12.5	.375

System: cycloheptane + 1-butyl-3-methylimidazolium tosylate; phases: Liquid
Fixed: Pressure, kPa = 101
Fixed: Mole fraction of cycloheptane = 0
Property: Activity coefficient of cycloheptane (Liquid); method: Chromatography
Temperature, K	Activity coefficient of cycloheptane	uncertainty
338.2	17.7	.531
348.2	16.3	.489
358.2	15.4	.462
368.2	14.5	.435

System: cyclooctane + 1-butyl-3-methylimidazolium tosylate; phases: Liquid
Fixed: Pressure, kPa = 101
Fixed: Mole fraction of cyclooctane = 0
Property: Activity coefficient of cyclooctane (Liquid); method: Chromatography
Temperature, K	Activity coefficient of cyclooctane	uncertainty
338.2	21.3	.639
348.2	19.7	.591
358.2	18.6	.558
368.2	17.6	.528

System: 1-pentene + 1-butyl-3-methylimidazolium tosylate; phases: Liquid
Fixed: Pressure, kPa = 101
Fixed: Mole fraction of 1-pentene = 0
Property: Activity coefficient of 1-pentene (Liquid); method: Chromatography
Temperature, K	Activity coefficient of 1-pentene	uncertainty
338.2	13.7	.411
348.2	12.6	.378
358.2	11.9	.357
368.2	11.2	.336

System: 1-hexene + 1-butyl-3-methylimidazolium tosylate; phases: Liquid
Fixed: Pressure, kPa = 101
Fixed: Mole fraction of 1-hexene = 0
Property: Activity coefficient of 1-hexene (Liquid); method: Chromatography
Temperature, K	Activity coefficient of 1-hexene	uncertainty
338.2	18	.54
348.2	16.6	.498
358.2	15.7	.471
368.2	14.9	.447

System: 1-heptene + 1-butyl-3-methylimidazolium tosylate; phases: Liquid
Fixed: Pressure, kPa = 101
Fixed: Mole fraction of 1-heptene = 0
Property: Activity coefficient of 1-heptene (Liquid); method: Chromatography
Temperature, K	Activity coefficient of 1-heptene	uncertainty
338.2	24.2	.726
348.2	22.5	.675
358.2	21.5	.645
368.2	20.4	.612

System: 1-octene + 1-butyl-3-methylimidazolium tosylate; phases: Liquid
Fixed: Pressure, kPa = 101
Fixed: Mole fraction of 1-octene = 0
Property: Activity coefficient of 1-octene (Liquid); method: Chromatography
Temperature, K	Activity coefficient of 1-octene	uncertainty
338.2	33.1	.993
348.2	31	.93
358.2	29.5	.885
368.2	28.2	.846

System: 1-hexyne + 1-butyl-3-methylimidazolium tosylate; phases: Liquid
Fixed: Pressure, kPa = 101
Fixed: Mole fraction of 1-hexyne = 0
Property: Activity coefficient of 1-hexyne (Liquid); method: Chromatography
Temperature, K	Activity coefficient of 1-hexyne	uncertainty
338.2	3.69	.1107
348.2	3.78	.1134
358.2	3.86	.1158
368.2	3.94	.1182

System: 1-heptyne + 1-butyl-3-methylimidazolium tosylate; phases: Liquid
Fixed: Pressure, kPa = 101
Fixed: Mole fraction of 1-heptyne = 0
Property: Activity coefficient of 1-heptyne (Liquid); method: Chromatography
Temperature, K	Activity coefficient of 1-heptyne	uncertainty
338.2	5.13	.1539
348.2	5.23	.1569
358.2	5.34	.1602
368.2	5.43	.1629

System: 1-octyne + 1-butyl-3-methylimidazolium tosylate; phases: Liquid
Fixed: Pressure, kPa = 101
Fixed: Mole fraction of 1-octyne = 0
Property: Activity coefficient of 1-octyne (Liquid); method: Chromatography
Temperature, K	Activity coefficient of 1-octyne	uncertainty
338.2	7.12	.2136
348.2	7.28	.2184
358.2	7.39	.2217
368.2	7.15	.2145

System: benzene + 1-butyl-3-methylimidazolium tosylate; phases: Liquid
Fixed: Pressure, kPa = 101
Fixed: Mole fraction of benzene = 0
Property: Activity coefficient of benzene (Liquid); method: Chromatography
Temperature, K	Activity coefficient of benzene	uncertainty
338.2	1.96	.0588
348.2	1.93	.0579
358.2	1.93	.0579
368.2	1.93	.0579

System: toluene + 1-butyl-3-methylimidazolium tosylate; phases: Liquid
Fixed: Pressure, kPa = 101
Fixed: Mole fraction of toluene = 0
Property: Activity coefficient of toluene (Liquid); method: Chromatography
Temperature, K	Activity coefficient of toluene	uncertainty
338.2	3.03	.0909
348.2	3.01	.0903
358.2	2.99	.0897
368.2	2.97	.0891

System: ethylbenzene + 1-butyl-3-methylimidazolium tosylate; phases: Liquid
Fixed: Pressure, kPa = 101
Fixed: Mole fraction of ethylbenzene = 0
Property: Activity coefficient of ethylbenzene (Liquid); method: Chromatography
Temperature, K	Activity coefficient of ethylbenzene	uncertainty
338.2	4.45	.1335
348.2	4.4	.132
358.2	4.36	.1308
368.2	4.32	.1296

System: 1,2-dimethylbenzene + 1-butyl-3-methylimidazolium tosylate; phases: Liquid
Fixed: Pressure, kPa = 101
Fixed: Mole fraction of 1,2-dimethylbenzene = 0
Property: Activity coefficient of 1,2-dimethylbenzene (Liquid); method: Chromatography
Temperature, K	Activity coefficient of 1,2-dimethylbenzene	uncertainty
338.2	4.07	.1221
348.2	4.01	.1203
358.2	3.96	.1188
368.2	3.93	.1179

System: 1,3-dimethylbenzene + 1-butyl-3-methylimidazolium tosylate; phases: Liquid
Fixed: Pressure, kPa = 101
Fixed: Mole fraction of 1,3-dimethylbenzene = 0
Property: Activity coefficient of 1,3-dimethylbenzene (Liquid); method: Chromatography
Temperature, K	Activity coefficient of 1,3-dimethylbenzene	uncertainty
338.2	4.76	.1428
348.2	4.67	.1401
358.2	4.63	.1389
368.2	4.58	.1374

System: 1,4-dimethylbenzene + 1-butyl-3-methylimidazolium tosylate; phases: Liquid
Fixed: Pressure, kPa = 101
Fixed: Mole fraction of 1,4-dimethylbenzene = 0
Property: Activity coefficient of 1,4-dimethylbenzene (Liquid); method: Chromatography
Temperature, K	Activity coefficient of 1,4-dimethylbenzene	uncertainty
338.2	4.73	.1419
348.2	4.64	.1392
358.2	4.61	.1383
368.2	4.56	.1368

System: methanol + 1-butyl-3-methylimidazolium tosylate; phases: Liquid
Fixed: Pressure, kPa = 101
Fixed: Mole fraction of methanol = 0
Property: Activity coefficient of methanol (Liquid); method: Chromatography
Temperature, K	Activity coefficient of methanol	uncertainty
338.2	.217	.00651
348.2	.219	.00657
358.2	.221	.00663
368.2	.223	.00669

System: ethanol + 1-butyl-3-methylimidazolium tosylate; phases: Liquid
Fixed: Pressure, kPa = 101
Fixed: Mole fraction of ethanol = 0
Property: Activity coefficient of ethanol (Liquid); method: Chromatography
Temperature, K	Activity coefficient of ethanol	uncertainty
338.2	.359	.01077
348.2	.357	.01071
358.2	.358	.01074
368.2	.358	.01074

System: propan-1-ol + 1-butyl-3-methylimidazolium tosylate; phases: Liquid
Fixed: Pressure, kPa = 101
Fixed: Mole fraction of propan-1-ol = 0
Property: Activity coefficient of propan-1-ol (Liquid); method: Chromatography
Temperature, K	Activity coefficient of propan-1-ol	uncertainty
338.2	.437	.01311
348.2	.434	.01302
358.2	.437	.01311
368.2	.437	.01311

System: water + 1-butyl-3-methylimidazolium tosylate; phases: Liquid
Fixed: Pressure, kPa = 101
Fixed: Mole fraction of water = 0
Property: Activity coefficient of water (Liquid); method: Chromatography
Temperature, K	Activity coefficient of water	uncertainty
338.2	.191	.00573
348.2	.196	.00588
358.2	.201	.00603
368.2	.207	.00621

System: thiophene + 1-butyl-3-methylimidazolium tosylate; phases: Liquid
Fixed: Pressure, kPa = 101
Fixed: Mole fraction of thiophene = 0
Property: Activity coefficient of thiophene (Liquid); method: Chromatography
Temperature, K	Activity coefficient of thiophene	uncertainty
338.2	1.11	.0333
348.2	1.13	.0339
358.2	1.14	.0342
368.2	1.16	.0348

System: tetramethylene oxide + 1-butyl-3-methylimidazolium tosylate; phases: Liquid
Fixed: Pressure, kPa = 101
Fixed: Mole fraction of tetramethylene oxide = 0
Property: Activity coefficient of tetramethylene oxide (Liquid); method: Chromatography
Temperature, K	Activity coefficient of tetramethylene oxide	uncertainty
338.2	1.88	.0564
348.2	1.87	.0561
358.2	1.86	.0558
368.2	1.85	.0555

System: methyl tert-butyl ether + 1-butyl-3-methylimidazolium tosylate; phases: Liquid
Fixed: Pressure, kPa = 101
Fixed: Mole fraction of methyl tert-butyl ether = 0
Property: Activity coefficient of methyl tert-butyl ether (Liquid); method: Chromatography
Temperature, K	Activity coefficient of methyl tert-butyl ether	uncertainty
338.2	8.28	.2484
348.2	7.84	.2352
358.2	7.58	.2274
368.2	7.37	.2211

System: ethane, 1,1'-oxybis- + 1-butyl-3-methylimidazolium tosylate; phases: Liquid
Fixed: Pressure, kPa = 101
Fixed: Mole fraction of ethane, 1,1'-oxybis- = 0
Property: Activity coefficient of ethane, 1,1'-oxybis- (Liquid); method: Chromatography
Temperature, K	Activity coefficient of ethane, 1,1'-oxybis-	uncertainty
338.2	6.57	.1971
348.2	6.36	.1908
358.2	6.16	.1848
368.2	5.93	.1779

System: dipropyl ether + 1-butyl-3-methylimidazolium tosylate; phases: Liquid
Fixed: Pressure, kPa = 101
Fixed: Mole fraction of dipropyl ether = 0
Property: Activity coefficient of dipropyl ether (Liquid); method: Chromatography
Temperature, K	Activity coefficient of dipropyl ether	uncertainty
338.2	15.5	.465
348.2	15.2	.456
358.2	14.2	.426
368.2	13.6	.408

System: dibutyl ether + 1-butyl-3-methylimidazolium tosylate; phases: Liquid
Fixed: Pressure, kPa = 101
Fixed: Mole fraction of dibutyl ether = 0
Property: Activity coefficient of dibutyl ether (Liquid); method: Chromatography
Temperature, K	Activity coefficient of dibutyl ether	uncertainty
338.2	29.2	.876
348.2	27.7	.831
358.2	26.3	.789
368.2	25.2	.756

System: propanone + 1-butyl-3-methylimidazolium tosylate; phases: Liquid
Fixed: Pressure, kPa = 101
Fixed: Mole fraction of propanone = 0
Property: Activity coefficient of propanone (Liquid); method: Chromatography
Temperature, K	Activity coefficient of propanone	uncertainty
338.2	1.48	.0444
348.2	1.46	.0438
358.2	1.45	.0435
368.2	1.42	.0426

System: propyl methyl ketone + 1-butyl-3-methylimidazolium tosylate; phases: Liquid
Fixed: Pressure, kPa = 101
Fixed: Mole fraction of propyl methyl ketone = 0
Property: Activity coefficient of propyl methyl ketone (Liquid); method: Chromatography
Temperature, K	Activity coefficient of propyl methyl ketone	uncertainty
338.2	2.68	.0804
348.2	2.64	.0792
358.2	2.61	.0783
368.2	2.58	.0774

System: 3-pentanone + 1-butyl-3-methylimidazolium tosylate; phases: Liquid
Fixed: Pressure, kPa = 101
Fixed: Mole fraction of 3-pentanone = 0
Property: Activity coefficient of 3-pentanone (Liquid); method: Chromatography
Temperature, K	Activity coefficient of 3-pentanone	uncertainty
338.2	2.68	.0804
348.2	2.65	.0795
358.2	2.63	.0789
368.2	2.6	.078
