Measured thermophysical data. Activity Coefficients at Infinite Dilution by GLC in Alkanediamines as Stationary Phases
Source: J. Chem. Eng. Data, 2011, 10.1021/je200628n
Compound 1: 1,8-diaminooctane, C8H20N2, purity 99%
Compound 2: 1,10-diaminodecane, C10H24N2, purity 98%
Compound 3: 1,12-diaminododecane, C12H28N2, purity 98%
Compound 4: pentane, C5H12, purity 97%
Compound 5: n-hexane, C6H14, purity 97%
Compound 6: heptane, C7H16, purity 97%
Compound 7: n-octane, C8H18, purity 97%
Compound 8: n-decane, C10H22, purity 97%
Compound 9: 1-pentene, C5H10, purity 97%
Compound 10: 1-hexene, C6H12, purity 97%
Compound 11: 1-heptene, C7H14, purity 97%
Compound 12: 1-octene, C8H16, purity 97%
Compound 13: 1-decene, C10H20, purity 97%
Compound 14: methanol, CH4O, purity 97%
Compound 15: ethanol, C2H6O, purity 97%
Compound 16: propyl alcohol, C3H8O, purity 97%
Compound 17: n-butyl alcohol, C4H10O, purity 97%
Compound 18: butyl chloride, C4H9Cl, purity 97%
Compound 19: pentane, 1-chloro-, C5H11Cl, purity 97%
Compound 20: hexyl chloride, C6H13Cl, purity 97%
Compound 21: dichloromethane, CH2Cl2, purity 97%
Compound 22: carbon tetrachloride, CCl4, purity 97%
Compound 23: ethyl ethanoate, C4H8O2, purity 97%
Compound 24: ethanoic acid, propyl ester, C5H10O2, purity 97%
Compound 25: n-butyl acetate, C6H12O2, purity 97%
Compound 26: benzene, C6H6, purity 97%
Compound 27: toluene, C7H8, purity 97%
Compound 28: ethylbenzene, C8H10, purity 97%
Compound 29: ethyl ether, C4H10O, purity 97%
Compound 30: butyl oxide, C8H18O, purity 97%

System: pentane + 1,8-diaminooctane; phases: Liquid
Fixed: Pressure, kPa = 101
Fixed: Mole fraction of pentane = 0
Property: Activity coefficient of pentane (Liquid); method: Chromatography
Temperature, K	Activity coefficient of pentane	uncertainty
328.21	1.373	.02746
338.23	1.266	.02532
343.19	1.215	.0243
348.25	1.163	.02326

System: n-hexane + 1,8-diaminooctane; phases: Liquid
Fixed: Pressure, kPa = 101
Fixed: Mole fraction of n-hexane = 0
Property: Activity coefficient of n-hexane (Liquid); method: Chromatography
Temperature, K	Activity coefficient of n-hexane	uncertainty
328.15	4.031	.08062
338.15	3.832	.07664
343.15	3.755	.0751
348.15	3.72	.0744

System: heptane + 1,8-diaminooctane; phases: Liquid
Fixed: Pressure, kPa = 101
Fixed: Mole fraction of heptane = 0
Property: Activity coefficient of heptane (Liquid); method: Chromatography
Temperature, K	Activity coefficient of heptane	uncertainty
328.15	4.355	.0871
338.15	4.092	.08184
343.15	3.999	.07998
348.15	3.947	.07894

System: n-octane + 1,8-diaminooctane; phases: Liquid
Fixed: Pressure, kPa = 101
Fixed: Mole fraction of n-octane = 0
Property: Activity coefficient of n-octane (Liquid); method: Chromatography
Temperature, K	Activity coefficient of n-octane	uncertainty
328.15	4.726	.09452
338.15	4.396	.08792
343.15	4.241	.08482
348.15	4.129	.08258

System: n-decane + 1,8-diaminooctane; phases: Liquid
Fixed: Pressure, kPa = 101
Fixed: Mole fraction of n-decane = 0
Property: Activity coefficient of n-decane (Liquid); method: Chromatography
Temperature, K	Activity coefficient of n-decane	uncertainty
328.15	5.471	.10942
338.15	4.815	.0963
343.15	4.576	.09152
348.15	4.355	.0871

System: 1-pentene + 1,8-diaminooctane; phases: Liquid
Fixed: Pressure, kPa = 101
Fixed: Mole fraction of 1-pentene = 0
Property: Activity coefficient of 1-pentene (Liquid); method: Chromatography
Temperature, K	Activity coefficient of 1-pentene	uncertainty
328.15	2.815	.0563
338.15	2.704	.05408
343.15	2.665	.0533
348.15	2.647	.05294

System: 1,8-diaminooctane + 1-hexene; phases: Liquid
Fixed: Pressure, kPa = 101
Fixed: Mole fraction of 1-hexene = 0
Property: Activity coefficient of 1-hexene (Liquid); method: Chromatography
Temperature, K	Activity coefficient of 1-hexene	uncertainty
328.15	3.18	.0636
338.15	2.942	.05884
343.15	2.852	.05704
348.15	2.774	.05548

System: 1,8-diaminooctane + 1-heptene; phases: Liquid
Fixed: Pressure, kPa = 101
Fixed: Mole fraction of 1-heptene = 0
Property: Activity coefficient of 1-heptene (Liquid); method: Chromatography
Temperature, K	Activity coefficient of 1-heptene	uncertainty
328.15	3.587	.07174
338.15	3.205	.0641
343.15	3.026	.06052
348.15	2.928	.05856

System: 1-octene + 1,8-diaminooctane; phases: Liquid
Fixed: Pressure, kPa = 101
Fixed: Mole fraction of 1-octene = 0
Property: Activity coefficient of 1-octene (Liquid); method: Chromatography
Temperature, K	Activity coefficient of 1-octene	uncertainty
328.15	3.937	.07874
338.15	3.377	.06754
343.15	3.159	.06318
348.15	3.004	.06008

System: 1,8-diaminooctane + 1-decene; phases: Liquid
Fixed: Pressure, kPa = 101
Fixed: Mole fraction of 1-decene = 0
Property: Activity coefficient of 1-decene (Liquid); method: Chromatography
Temperature, K	Activity coefficient of 1-decene	uncertainty
328.15	4.239	.08478
338.15	3.581	.07162
343.15	3.331	.06662
348.15	3.142	.06284

System: methanol + 1,8-diaminooctane; phases: Liquid
Fixed: Pressure, kPa = 101
Fixed: Mole fraction of methanol = 0
Property: Activity coefficient of methanol (Liquid); method: Chromatography
Temperature, K	Activity coefficient of methanol	uncertainty
328.15	.284	.00568
338.15	.317	.00634
343.15	.34	.0068
348.15	.369	.00738

System: ethanol + 1,8-diaminooctane; phases: Liquid
Fixed: Pressure, kPa = 101
Fixed: Mole fraction of ethanol = 0
Property: Activity coefficient of ethanol (Liquid); method: Chromatography
Temperature, K	Activity coefficient of ethanol	uncertainty
328.15	.384	.00768
338.15	.407	.00814
343.15	.42	.0084
348.15	.435	.0087

System: propyl alcohol + 1,8-diaminooctane; phases: Liquid
Fixed: Pressure, kPa = 101
Fixed: Mole fraction of propyl alcohol = 0
Property: Activity coefficient of propyl alcohol (Liquid); method: Chromatography
Temperature, K	Activity coefficient of propyl alcohol	uncertainty
328.15	.567	.01134
338.15	.58	.0116
343.15	.593	.01186
348.15	.614	.01228

System: n-butyl alcohol + 1,8-diaminooctane; phases: Liquid
Fixed: Pressure, kPa = 101
Fixed: Mole fraction of n-butyl alcohol = 0
Property: Activity coefficient of n-butyl alcohol (Liquid); method: Chromatography
Temperature, K	Activity coefficient of n-butyl alcohol	uncertainty
328.15	.669	.01338
338.15	.675	.0135
343.15	.681	.01362
348.15	.692	.01384

System: butyl chloride + 1,8-diaminooctane; phases: Liquid
Fixed: Pressure, kPa = 101
Fixed: Mole fraction of butyl chloride = 0
Property: Activity coefficient of butyl chloride (Liquid); method: Chromatography
Temperature, K	Activity coefficient of butyl chloride	uncertainty
328.15	1.881	.03762
338.15	1.649	.03298
343.15	1.546	.03092
348.15	1.475	.0295

System: 1,8-diaminooctane + pentane, 1-chloro-; phases: Liquid
Fixed: Pressure, kPa = 101
Fixed: Mole fraction of pentane, 1-chloro- = 0
Property: Activity coefficient of pentane, 1-chloro- (Liquid); method: Chromatography
Temperature, K	Activity coefficient of pentane, 1-chloro-	uncertainty
328.15	2.71	.0542
338.15	2.125	.0425
343.15	1.918	.03836
348.15	1.732	.03464

System: 1,8-diaminooctane + hexyl chloride; phases: Liquid
Fixed: Pressure, kPa = 101
Fixed: Mole fraction of hexyl chloride = 0
Property: Activity coefficient of hexyl chloride (Liquid); method: Chromatography
Temperature, K	Activity coefficient of hexyl chloride	uncertainty
328.15	3.855	.0771
338.15	2.728	.05456
343.15	2.378	.04756
348.15	2.02	.0404

System: dichloromethane + 1,8-diaminooctane; phases: Liquid
Fixed: Pressure, kPa = 101
Fixed: Mole fraction of dichloromethane = 0
Property: Activity coefficient of dichloromethane (Liquid); method: Chromatography
Temperature, K	Activity coefficient of dichloromethane	uncertainty
328.15	.657	.01314
338.15	.552	.01104
343.15	.53	.0106
348.15	.513	.01026

System: carbon tetrachloride + 1,8-diaminooctane; phases: Liquid
Fixed: Pressure, kPa = 101
Fixed: Mole fraction of carbon tetrachloride = 0
Property: Activity coefficient of carbon tetrachloride (Liquid); method: Chromatography
Temperature, K	Activity coefficient of carbon tetrachloride	uncertainty
328.15	2.065	.0413
338.15	1.662	.03324
343.15	1.509	.03018
348.15	1.374	.02748

System: ethyl ethanoate + 1,8-diaminooctane; phases: Liquid
Fixed: Pressure, kPa = 101
Fixed: Mole fraction of ethyl ethanoate = 0
Property: Activity coefficient of ethyl ethanoate (Liquid); method: Chromatography
Temperature, K	Activity coefficient of ethyl ethanoate	uncertainty
328.15	1.082	.02164
338.15	.954	.01908
343.15	.902	.01804
348.15	.855	.0171

System: ethanoic acid, propyl ester + 1,8-diaminooctane; phases: Liquid
Fixed: Pressure, kPa = 101
Fixed: Mole fraction of ethanoic acid, propyl ester = 0
Property: Activity coefficient of ethanoic acid, propyl ester (Liquid); method: Chromatography
Temperature, K	Activity coefficient of ethanoic acid, propyl ester	uncertainty
328.15	1.29	.0258
338.15	1.08	.0216
343.15	.997	.01994
348.15	.929	.01858

System: n-butyl acetate + 1,8-diaminooctane; phases: Liquid
Fixed: Pressure, kPa = 101
Fixed: Mole fraction of n-butyl acetate = 0
Property: Activity coefficient of n-butyl acetate (Liquid); method: Chromatography
Temperature, K	Activity coefficient of n-butyl acetate	uncertainty
328.15	1.509	.03018
338.15	1.247	.02494
343.15	1.144	.02288
348.15	1.053	.02106

System: benzene + 1,8-diaminooctane; phases: Liquid
Fixed: Pressure, kPa = 101
Fixed: Mole fraction of benzene = 0
Property: Activity coefficient of benzene (Liquid); method: Chromatography
Temperature, K	Activity coefficient of benzene	uncertainty
328.15	1.801	.03602
338.15	1.669	.03338
343.15	1.623	.03246
348.15	1.586	.03172

System: toluene + 1,8-diaminooctane; phases: Liquid
Fixed: Pressure, kPa = 101
Fixed: Mole fraction of toluene = 0
Property: Activity coefficient of toluene (Liquid); method: Chromatography
Temperature, K	Activity coefficient of toluene	uncertainty
328.15	2.389	.04778
338.15	2.173	.04346
343.15	2.111	.04222
348.15	2.067	.04134

System: ethylbenzene + 1,8-diaminooctane; phases: Liquid
Fixed: Pressure, kPa = 101
Fixed: Mole fraction of ethylbenzene = 0
Property: Activity coefficient of ethylbenzene (Liquid); method: Chromatography
Temperature, K	Activity coefficient of ethylbenzene	uncertainty
328.15	2.067	.04134
338.15	1.865	.0373
343.15	1.775	.0355
348.15	1.717	.03434

System: ethyl ether + 1,8-diaminooctane; phases: Liquid
Fixed: Pressure, kPa = 101
Fixed: Mole fraction of ethyl ether = 0
Property: Activity coefficient of ethyl ether (Liquid); method: Chromatography
Temperature, K	Activity coefficient of ethyl ether	uncertainty
328.15	3.517	.07034
338.15	3.405	.0681
343.15	3.371	.06742
348.15	3.364	.06728

System: butyl oxide + 1,8-diaminooctane; phases: Liquid
Fixed: Pressure, kPa = 101
Fixed: Mole fraction of butyl oxide = 0
Property: Activity coefficient of butyl oxide (Liquid); method: Chromatography
Temperature, K	Activity coefficient of butyl oxide	uncertainty
328.15	8.791	.17582
338.15	7.793	.15586
343.15	7.418	.14836
348.15	7.177	.14354

System: pentane + 1,10-diaminodecane; phases: Liquid
Fixed: Pressure, kPa = 101
Fixed: Mole fraction of pentane = 0
Property: Activity coefficient of pentane (Liquid); method: Chromatography
Temperature, K	Activity coefficient of pentane	uncertainty
4.331	338.2	6.764
4.022	348.15	6.963
3.9	353.22	7.0644

System: n-hexane + 1,10-diaminodecane; phases: Liquid
Fixed: Pressure, kPa = 101
Fixed: Mole fraction of n-hexane = 0
Property: Activity coefficient of n-hexane (Liquid); method: Chromatography
Temperature, K	Activity coefficient of n-hexane	uncertainty
338.2	4.96	.0992
348.15	4.547	.09094
353.22	4.407	.08814

System: heptane + 1,10-diaminodecane; phases: Liquid
Fixed: Pressure, kPa = 101
Fixed: Mole fraction of heptane = 0
Property: Activity coefficient of heptane (Liquid); method: Chromatography
Temperature, K	Activity coefficient of heptane	uncertainty
338.2	5.048	.10096
348.15	4.64	.0928
353.22	4.456	.08912

System: n-octane + 1,10-diaminodecane; phases: Liquid
Fixed: Pressure, kPa = 101
Fixed: Mole fraction of n-octane = 0
Property: Activity coefficient of n-octane (Liquid); method: Chromatography
Temperature, K	Activity coefficient of n-octane	uncertainty
338.2	5.235	.1047
348.15	4.785	.0957
353.22	4.549	.09098

System: n-decane + 1,10-diaminodecane; phases: Liquid
Fixed: Pressure, kPa = 101
Fixed: Mole fraction of n-decane = 0
Property: Activity coefficient of n-decane (Liquid); method: Chromatography
Temperature, K	Activity coefficient of n-decane	uncertainty
338.2	5.593	.11186
348.15	5.032	.10064
353.22	4.781	.09562

System: 1-pentene + 1,10-diaminodecane; phases: Liquid
Fixed: Pressure, kPa = 101
Fixed: Mole fraction of 1-pentene = 0
Property: Activity coefficient of 1-pentene (Liquid); method: Chromatography
Temperature, K	Activity coefficient of 1-pentene	uncertainty
338.2	3.228	.06456
348.15	2.978	.05956
353.22	2.875	.0575

System: 1-hexene + 1,10-diaminodecane; phases: Liquid
Fixed: Pressure, kPa = 101
Fixed: Mole fraction of 1-hexene = 0
Property: Activity coefficient of 1-hexene (Liquid); method: Chromatography
Temperature, K	Activity coefficient of 1-hexene	uncertainty
338.2	3.372	.06744
348.15	3.058	.06116
353.22	2.923	.05846

System: 1-heptene + 1,10-diaminodecane; phases: Liquid
Fixed: Pressure, kPa = 101
Fixed: Mole fraction of 1-heptene = 0
Property: Activity coefficient of 1-heptene (Liquid); method: Chromatography
Temperature, K	Activity coefficient of 1-heptene	uncertainty
338.2	3.433	.06866
348.15	3.1	.062
353.22	2.97	.0594

System: 1-octene + 1,10-diaminodecane; phases: Liquid
Fixed: Pressure, kPa = 101
Fixed: Mole fraction of 1-octene = 0
Property: Activity coefficient of 1-octene (Liquid); method: Chromatography
Temperature, K	Activity coefficient of 1-octene	uncertainty
338.2	4.089	.08178
348.15	3.651	.07302
353.22	3.447	.06894

System: 1,10-diaminodecane + 1-decene; phases: Liquid
Fixed: Pressure, kPa = 101
Fixed: Mole fraction of 1-decene = 0
Property: Activity coefficient of 1-decene (Liquid); method: Chromatography
Temperature, K	Activity coefficient of 1-decene	uncertainty
338.2	4.336	.08672
348.15	3.822	.07644
353.22	3.572	.07144

System: methanol + 1,10-diaminodecane; phases: Liquid
Fixed: Pressure, kPa = 101
Fixed: Mole fraction of methanol = 0
Property: Activity coefficient of methanol (Liquid); method: Chromatography
Temperature, K	Activity coefficient of methanol	uncertainty
338.2	.551	.01102
348.15	.634	.01268
353.22	.682	.01364

System: ethanol + 1,10-diaminodecane; phases: Liquid
Fixed: Pressure, kPa = 101
Fixed: Mole fraction of ethanol = 0
Property: Activity coefficient of ethanol (Liquid); method: Chromatography
Temperature, K	Activity coefficient of ethanol	uncertainty
338.2	.602	.01204
348.15	.676	.01352
353.22	.718	.01436

System: propyl alcohol + 1,10-diaminodecane; phases: Liquid
Fixed: Pressure, kPa = 101
Fixed: Mole fraction of propyl alcohol = 0
Property: Activity coefficient of propyl alcohol (Liquid); method: Chromatography
Temperature, K	Activity coefficient of propyl alcohol	uncertainty
338.2	.622	.01244
348.15	.731	.01462
353.22	.772	.01544

System: n-butyl alcohol + 1,10-diaminodecane; phases: Liquid
Fixed: Pressure, kPa = 101
Fixed: Mole fraction of n-butyl alcohol = 0
Property: Activity coefficient of n-butyl alcohol (Liquid); method: Chromatography
Temperature, K	Activity coefficient of n-butyl alcohol	uncertainty
338.2	.721	.01442
348.15	.774	.01548
353.22	.815	.0163

System: butyl chloride + 1,10-diaminodecane; phases: Liquid
Fixed: Pressure, kPa = 101
Fixed: Mole fraction of butyl chloride = 0
Property: Activity coefficient of butyl chloride (Liquid); method: Chromatography
Temperature, K	Activity coefficient of butyl chloride	uncertainty
338.2	2.382	.04764
348.15	2.117	.04234
353.22	2.011	.04022

System: pentane, 1-chloro- + 1,10-diaminodecane; phases: Liquid
Fixed: Pressure, kPa = 101
Fixed: Mole fraction of pentane, 1-chloro- = 0
Property: Activity coefficient of pentane, 1-chloro- (Liquid); method: Chromatography
Temperature, K	Activity coefficient of pentane, 1-chloro-	uncertainty
338.2	2.94	.0588
348.15	2.431	.04862
353.22	2.235	.0447

System: hexyl chloride + 1,10-diaminodecane; phases: Liquid
Fixed: Pressure, kPa = 101
Fixed: Mole fraction of hexyl chloride = 0
Property: Activity coefficient of hexyl chloride (Liquid); method: Chromatography
Temperature, K	Activity coefficient of hexyl chloride	uncertainty
338.2	3.461	.06922
348.15	2.81	.0562
353.22	2.543	.05086

System: dichloromethane + 1,10-diaminodecane; phases: Liquid
Fixed: Pressure, kPa = 101
Fixed: Mole fraction of dichloromethane = 0
Property: Activity coefficient of dichloromethane (Liquid); method: Chromatography
Temperature, K	Activity coefficient of dichloromethane	uncertainty
338.2	1.188	.02376
348.15	1.086	.02172
353.22	.985	.0197

System: carbon tetrachloride + 1,10-diaminodecane; phases: Liquid
Fixed: Pressure, kPa = 101
Fixed: Mole fraction of carbon tetrachloride = 0
Property: Activity coefficient of carbon tetrachloride (Liquid); method: Chromatography
Temperature, K	Activity coefficient of carbon tetrachloride	uncertainty
338.2	2.25	.045
348.15	2.053	.04106
353.22	1.976	.03952

System: ethyl ethanoate + 1,10-diaminodecane; phases: Liquid
Fixed: Pressure, kPa = 101
Fixed: Mole fraction of ethyl ethanoate = 0
Property: Activity coefficient of ethyl ethanoate (Liquid); method: Chromatography
Temperature, K	Activity coefficient of ethyl ethanoate	uncertainty
338.2	1.158	.02316
348.15	.951	.01902
353.22	.868	.01736

System: ethanoic acid, propyl ester + 1,10-diaminodecane; phases: Liquid
Fixed: Pressure, kPa = 101
Fixed: Mole fraction of ethanoic acid, propyl ester = 0
Property: Activity coefficient of ethanoic acid, propyl ester (Liquid); method: Chromatography
Temperature, K	Activity coefficient of ethanoic acid, propyl ester	uncertainty
338.2	1.392	.02784
348.15	1.107	.02214
353.22	.991	.01982

System: n-butyl acetate + 1,10-diaminodecane; phases: Liquid
Fixed: Pressure, kPa = 101
Fixed: Mole fraction of n-butyl acetate = 0
Property: Activity coefficient of n-butyl acetate (Liquid); method: Chromatography
Temperature, K	Activity coefficient of n-butyl acetate	uncertainty
338.2	1.503	.03006
348.15	1.172	.02344
353.22	1.033	.02066

System: benzene + 1,10-diaminodecane; phases: Liquid
Fixed: Pressure, kPa = 101
Fixed: Mole fraction of benzene = 0
Property: Activity coefficient of benzene (Liquid); method: Chromatography
Temperature, K	Activity coefficient of benzene	uncertainty
338.2	1.72	.0344
348.15	1.613	.03226
353.22	1.578	.03156

System: toluene + 1,10-diaminodecane; phases: Liquid
Fixed: Pressure, kPa = 101
Fixed: Mole fraction of toluene = 0
Property: Activity coefficient of toluene (Liquid); method: Chromatography
Temperature, K	Activity coefficient of toluene	uncertainty
338.2	2.517	.05034
348.15	2.233	.04466
353.22	2.129	.04258

System: ethylbenzene + 1,10-diaminodecane; phases: Liquid
Fixed: Pressure, kPa = 101
Fixed: Mole fraction of ethylbenzene = 0
Property: Activity coefficient of ethylbenzene (Liquid); method: Chromatography
Temperature, K	Activity coefficient of ethylbenzene	uncertainty
338.2	1.967	.03934
348.15	1.778	.03556
353.22	1.716	.03432

System: ethyl ether + 1,10-diaminodecane; phases: Liquid
Fixed: Pressure, kPa = 101
Fixed: Mole fraction of ethyl ether = 0
Property: Activity coefficient of ethyl ether (Liquid); method: Chromatography
Temperature, K	Activity coefficient of ethyl ether	uncertainty
338.2	3.837	.07674
348.15	3.686	.07372
353.22	3.64	.0728

System: butyl oxide + 1,10-diaminodecane; phases: Liquid
Fixed: Pressure, kPa = 101
Fixed: Mole fraction of butyl oxide = 0
Property: Activity coefficient of butyl oxide (Liquid); method: Chromatography
Temperature, K	Activity coefficient of butyl oxide	uncertainty
338.2	7.936	.15872
348.15	7.5	.15
353.22	7.391	.14782

System: pentane + 1,12-diaminododecane; phases: Liquid
Fixed: Pressure, kPa = 101
Fixed: Mole fraction of pentane = 0
Property: Activity coefficient of pentane (Liquid); method: Chromatography
Temperature, K	Activity coefficient of pentane	uncertainty
348.25	4.756	.09512
353.15	4.736	.09472
358.25	4.681	.09362
363.21	4.627	.09254

System: n-hexane + 1,12-diaminododecane; phases: Liquid
Fixed: Pressure, kPa = 101
Fixed: Mole fraction of n-hexane = 0
Property: Activity coefficient of n-hexane (Liquid); method: Chromatography
Temperature, K	Activity coefficient of n-hexane	uncertainty
348.25	4.861	.09722
353.15	4.805	.0961
358.25	4.736	.09472
363.21	4.691	.09382

System: heptane + 1,12-diaminododecane; phases: Liquid
Fixed: Pressure, kPa = 101
Fixed: Mole fraction of heptane = 0
Property: Activity coefficient of heptane (Liquid); method: Chromatography
Temperature, K	Activity coefficient of heptane	uncertainty
348.25	5.213	.10426
353.15	5.132	.10264
358.25	5.041	.10082
363.21	4.967	.09934

System: n-octane + 1,12-diaminododecane; phases: Liquid
Fixed: Pressure, kPa = 101
Fixed: Mole fraction of n-octane = 0
Property: Activity coefficient of n-octane (Liquid); method: Chromatography
Temperature, K	Activity coefficient of n-octane	uncertainty
348.25	5.541	.11082
353.15	5.427	.10854
358.25	5.271	.10542
363.21	5.19	.1038

System: n-decane + 1,12-diaminododecane; phases: Liquid
Fixed: Pressure, kPa = 101
Fixed: Mole fraction of n-decane = 0
Property: Activity coefficient of n-decane (Liquid); method: Chromatography
Temperature, K	Activity coefficient of n-decane	uncertainty
348.25	6.11	.1222
353.15	5.889	.11778
358.25	5.74	.1148
363.21	5.597	.11194

System: 1-pentene + 1,12-diaminododecane; phases: Liquid
Fixed: Pressure, kPa = 101
Fixed: Mole fraction of 1-pentene = 0
Property: Activity coefficient of 1-pentene (Liquid); method: Chromatography
Temperature, K	Activity coefficient of 1-pentene	uncertainty
348.25	4.209	.08418
353.15	4.045	.0809
358.25	3.89	.0778
363.21	3.745	.0749

System: 1-hexene + 1,12-diaminododecane; phases: Liquid
Fixed: Pressure, kPa = 101
Fixed: Mole fraction of 1-hexene = 0
Property: Activity coefficient of 1-hexene (Liquid); method: Chromatography
Temperature, K	Activity coefficient of 1-hexene	uncertainty
348.25	4.28	.0856
353.15	4.119	.08238
358.25	3.932	.07864
363.21	3.801	.07602

System: 1-heptene + 1,12-diaminododecane; phases: Liquid
Fixed: Pressure, kPa = 101
Fixed: Mole fraction of 1-heptene = 0
Property: Activity coefficient of 1-heptene (Liquid); method: Chromatography
Temperature, K	Activity coefficient of 1-heptene	uncertainty
348.25	4.435	.0887
353.15	4.22	.0844
358.25	4.081	.08162
363.21	3.876	.07752

System: 1-octene + 1,12-diaminododecane; phases: Liquid
Fixed: Pressure, kPa = 101
Fixed: Mole fraction of 1-octene = 0
Property: Activity coefficient of 1-octene (Liquid); method: Chromatography
Temperature, K	Activity coefficient of 1-octene	uncertainty
348.25	4.827	.09654
353.15	4.53	.0906
358.25	4.327	.08654
363.21	4.105	.0821

System: 1-decene + 1,12-diaminododecane; phases: Liquid
Fixed: Pressure, kPa = 101
Fixed: Mole fraction of 1-decene = 0
Property: Activity coefficient of 1-decene (Liquid); method: Chromatography
Temperature, K	Activity coefficient of 1-decene	uncertainty
348.25	5.047	.10094
353.15	4.802	.09604
358.25	4.467	.08934
363.21	4.244	.08488

System: methanol + 1,12-diaminododecane; phases: Liquid
Fixed: Pressure, kPa = 101
Fixed: Mole fraction of methanol = 0
Property: Activity coefficient of methanol (Liquid); method: Chromatography
Temperature, K	Activity coefficient of methanol	uncertainty
348.25	.774	.01548
353.15	.841	.01682
358.25	.919	.01838
363.21	1.006	.02012

System: ethanol + 1,12-diaminododecane; phases: Liquid
Fixed: Pressure, kPa = 101
Fixed: Mole fraction of ethanol = 0
Property: Activity coefficient of ethanol (Liquid); method: Chromatography
Temperature, K	Activity coefficient of ethanol	uncertainty
348.25	.828	.01656
353.15	.891	.01782
358.25	.952	.01904
363.21	1.029	.02058

System: propyl alcohol + 1,12-diaminododecane; phases: Liquid
Fixed: Pressure, kPa = 101
Fixed: Mole fraction of propyl alcohol = 0
Property: Activity coefficient of propyl alcohol (Liquid); method: Chromatography
Temperature, K	Activity coefficient of propyl alcohol	uncertainty
348.25	.931	.01862
353.15	.975	.0195
358.25	1.037	.02074
363.21	1.088	.02176

System: n-butyl alcohol + 1,12-diaminododecane; phases: Liquid
Fixed: Pressure, kPa = 101
Fixed: Mole fraction of n-butyl alcohol = 0
Property: Activity coefficient of n-butyl alcohol (Liquid); method: Chromatography
Temperature, K	Activity coefficient of n-butyl alcohol	uncertainty
348.25	1.075	.0215
353.15	1.096	.02192
358.25	1.123	.02246
363.21	1.159	.02318

System: butyl chloride + 1,12-diaminododecane; phases: Liquid
Fixed: Pressure, kPa = 101
Fixed: Mole fraction of butyl chloride = 0
Property: Activity coefficient of butyl chloride (Liquid); method: Chromatography
Temperature, K	Activity coefficient of butyl chloride	uncertainty
348.25	2.706	.05412
353.15	2.627	.05254
358.25	2.56	.0512
363.21	2.461	.04922

System: pentane, 1-chloro- + 1,12-diaminododecane; phases: Liquid
Fixed: Pressure, kPa = 101
Fixed: Mole fraction of pentane, 1-chloro- = 0
Property: Activity coefficient of pentane, 1-chloro- (Liquid); method: Chromatography
Temperature, K	Activity coefficient of pentane, 1-chloro-	uncertainty
348.25	3.075	.0615
353.15	2.906	.05812
358.25	2.726	.05452
363.21	2.677	.05354

System: hexyl chloride + 1,12-diaminododecane; phases: Liquid
Fixed: Pressure, kPa = 101
Fixed: Mole fraction of hexyl chloride = 0
Property: Activity coefficient of hexyl chloride (Liquid); method: Chromatography
Temperature, K	Activity coefficient of hexyl chloride	uncertainty
348.25	4.503	.09006
353.15	4.267	.08534
358.25	4.112	.08224
363.21	3.943	.07886

System: dichloromethane + 1,12-diaminododecane; phases: Liquid
Fixed: Pressure, kPa = 101
Fixed: Mole fraction of dichloromethane = 0
Property: Activity coefficient of dichloromethane (Liquid); method: Chromatography
Temperature, K	Activity coefficient of dichloromethane	uncertainty
348.25	1.327	.02654
353.15	1.226	.02452
358.25	1.118	.02236
363.21	1.046	.02092

System: carbon tetrachloride + 1,12-diaminododecane; phases: Liquid
Fixed: Pressure, kPa = 101
Fixed: Mole fraction of carbon tetrachloride = 0
Property: Activity coefficient of carbon tetrachloride (Liquid); method: Chromatography
Temperature, K	Activity coefficient of carbon tetrachloride	uncertainty
348.25	2.367	.04734
353.15	2.276	.04552
358.25	2.063	.04126
363.21	1.979	.03958

System: ethyl ethanoate + 1,12-diaminododecane; phases: Liquid
Fixed: Pressure, kPa = 101
Fixed: Mole fraction of ethyl ethanoate = 0
Property: Activity coefficient of ethyl ethanoate (Liquid); method: Chromatography
Temperature, K	Activity coefficient of ethyl ethanoate	uncertainty
348.25	1.362	.02724
353.15	1.286	.02572
358.25	1.217	.02434
363.21	1.149	.02298

System: ethanoic acid, propyl ester + 1,12-diaminododecane; phases: Liquid
Fixed: Pressure, kPa = 101
Fixed: Mole fraction of ethanoic acid, propyl ester = 0
Property: Activity coefficient of ethanoic acid, propyl ester (Liquid); method: Chromatography
Temperature, K	Activity coefficient of ethanoic acid, propyl ester	uncertainty
348.25	1.552	.03104
353.15	1.454	.02908
358.25	1.352	.02704
363.21	1.258	.02516

System: n-butyl acetate + 1,12-diaminododecane; phases: Liquid
Fixed: Pressure, kPa = 101
Fixed: Mole fraction of n-butyl acetate = 0
Property: Activity coefficient of n-butyl acetate (Liquid); method: Chromatography
Temperature, K	Activity coefficient of n-butyl acetate	uncertainty
348.25	1.687	.03374
353.15	1.572	.03144
358.25	1.462	.02924
363.21	1.365	.0273

System: benzene + 1,12-diaminododecane; phases: Liquid
Fixed: Pressure, kPa = 101
Fixed: Mole fraction of benzene = 0
Property: Activity coefficient of benzene (Liquid); method: Chromatography
Temperature, K	Activity coefficient of benzene	uncertainty
348.25	2.079	.04158
353.15	2.069	.04138
358.25	2.058	.04116
363.21	2.042	.04084

System: toluene + 1,12-diaminododecane; phases: Liquid
Fixed: Pressure, kPa = 101
Fixed: Mole fraction of toluene = 0
Property: Activity coefficient of toluene (Liquid); method: Chromatography
Temperature, K	Activity coefficient of toluene	uncertainty
348.25	2.602	.05204
353.15	2.509	.05018
358.25	2.424	.04848
363.21	2.332	.04664

System: ethylbenzene + 1,12-diaminododecane; phases: Liquid
Fixed: Pressure, kPa = 101
Fixed: Mole fraction of ethylbenzene = 0
Property: Activity coefficient of ethylbenzene (Liquid); method: Chromatography
Temperature, K	Activity coefficient of ethylbenzene	uncertainty
348.25	2.504	.05008
353.15	2.467	.04934
358.25	2.417	.04834
363.21	2.387	.04774

System: ethyl ether + 1,12-diaminododecane; phases: Liquid
Fixed: Pressure, kPa = 101
Fixed: Mole fraction of ethyl ether = 0
Property: Activity coefficient of ethyl ether (Liquid); method: Chromatography
Temperature, K	Activity coefficient of ethyl ether	uncertainty
348.25	4.446	.08892
353.15	4.369	.08738
358.25	4.332	.08664
363.21	4.25	.085

System: butyl oxide + 1,12-diaminododecane; phases: Liquid
Fixed: Pressure, kPa = 101
Fixed: Mole fraction of butyl oxide = 0
Property: Activity coefficient of butyl oxide (Liquid); method: Chromatography
Temperature, K	Activity coefficient of butyl oxide	uncertainty
348.25	8.929	.17858
353.15	8.471	.16942
358.25	7.896	.15792
363.21	7.452	.14904
