Measured thermophysical data. Solute Partitioning Between 1-n-Butyl-3-methylimidazolium Trifluoromethanesulfonate Ionic Liquid and Supercritical CO2
Source: J. Chem. Eng. Data, 2012, 10.1021/je200986x
Compound 1: 1-phenylethanone, C8H8O, purity .98%
Compound 2: anyvim, C6H7N, purity .98%
Compound 3: anisole, C7H8O, purity .98%
Compound 4: bicyclo[5.3.0]decapentaene, C10H8, purity .98%
Compound 5: 1,3,5,7,9-decapentaene, C10H12, purity .98%
Compound 6: benzil, C14H10O2, purity .98%
Compound 7: benzenecarboxylic acid, C7H6O2, purity 98%
Compound 8: benzothiazole, C7H5NS, purity 98%
Compound 9: 2(2H)-chromenone, C9H6O2, purity 98%
Compound 10: 1-hydroxy-4-methylbenzene, C7H8O, purity 98%
Compound 11: diphenylene sulfide, C12H8S, purity 98%
Compound 12: benzenamine, N,N-dimethyl-, C8H11N, purity 98%
Compound 13: 1-hydroxyhexane, C6H14O, purity 98%
Compound 14: indole, C8H7N, purity 98%
Compound 15: .alpha.-ionone, C13H20O, purity 98%
Compound 16: aniline, N-methyl-, C7H9N, purity 98%
Compound 17: .alpha.-phenylethyl alcohol, C8H10O, purity 98%
Compound 18: 2-phenylethanol, C8H10O, purity 98%
Compound 19: carbolic acid, C6H6O, purity 98%
Compound 20: phenoxathiin, C12H8OS, purity 98%
Compound 21: pyrene, C16H10, purity 98%
Compound 22: thianaphthene, C8H6S, purity 98%
Compound 23: dibenzo-1,4-dithiin, C12H8S2, purity 98%
Compound 24: benzene, 1,2-dimethoxy-, C8H10O2, purity 98%
Compound 25: carbon dioxide, CO2
Compound 26: n-hexane, C6H14, purity 95%
Compound 27: methanol, CH4O, purity 99.9%
Compound 28: dichloromethane, CH2Cl2, purity 99.9%
Compound 29: 1-butyl-3-methylimidazolium triflate, C9H15F3N2O3S, purity 99%
Compound 30: camphor, C10H16O, purity 98%
Compound 31: naphthalene, C10H8, purity 98%

System: 1-hydroxyhexane + carbon dioxide + 1-butyl-3-methylimidazolium triflate; phases: Gas, Liquid
Fixed: Mole fraction of 1-hydroxyhexane = 0
Property: Mole fraction of 1-hydroxyhexane (Gas); method: Chromatography
Temperature, K	Pressure, kPa	Mole fraction of 1-hydroxyhexane	uncertainty
313.2	7300	.00681	.000681
313.2	8100	.0132	.00132
313.2	8500	.0262	.00262
313.2	8800	.0351	.00351
313.2	9200	.0508	.00508
313.2	10500	.0717	.00717
313.2	13200	.0888	.00888
333.2	8700	.0118	.00118
333.2	10000	.0194	.00194
333.2	10900	.0306	.00306
333.2	12100	.0466	.00466
333.2	13300	.0624	.00624
333.2	16700	.085	.0085
353.2	10000	.0115	.00115
353.2	11800	.0171	.00171
353.2	13300	.0214	.00214
353.2	15300	.029	.0029
353.2	17600	.0356	.00356
353.2	23200	.0395	.00395

System: .alpha.-phenylethyl alcohol + carbon dioxide + 1-butyl-3-methylimidazolium triflate; phases: Gas, Liquid
Fixed: Mole fraction of .alpha.-phenylethyl alcohol = 0
Property: Mole fraction of .alpha.-phenylethyl alcohol (Gas); method: Chromatography
Temperature, K	Pressure, kPa	Mole fraction of .alpha.-phenylethyl alcohol	uncertainty
313.2	8500	.00365	.000365
313.2	8800	.00555	.000555
313.2	9200	.00907	.000907
313.2	10500	.0144	.00144
313.2	13200	.0216	.00216
333.2	10900	.00425	.000425
333.2	12100	.0076	.00076
333.2	13300	.0117	.00117
333.2	16700	.0208	.00208
353.2	10000	.00137	.000137
353.2	11800	.00236	.000236
353.2	13300	.00341	.000341
353.2	15300	.00541	.000541
353.2	17600	.00806	.000806
353.2	23200	.0122	.00122

System: 2-phenylethanol + carbon dioxide + 1-butyl-3-methylimidazolium triflate; phases: Gas, Liquid
Fixed: Mole fraction of 2-phenylethanol = 0
Property: Mole fraction of 2-phenylethanol (Gas); method: Chromatography
Temperature, K	Pressure, kPa	Mole fraction of 2-phenylethanol	uncertainty
313.2	8500	.00241	.000241
313.2	8800	.00377	.000377
313.2	9200	.00631	.000631
313.2	10500	.0104	.00104
313.2	13200	.0163	.00163
333.2	10900	.00275	.000275
333.2	12100	.00509	.000509
333.2	13300	.00808	.000808
333.2	16700	.0153	.00153
353.2	10000	.000827	.0000827
353.2	11800	.00148	.000148
353.2	13300	.0022	.00022
353.2	15300	.00366	.000366
353.2	17600	.00564	.000564
353.2	23200	.00913	.000913

System: 1-phenylethanone + carbon dioxide + 1-butyl-3-methylimidazolium triflate; phases: Gas, Liquid
Fixed: Mole fraction of 1-phenylethanone = 0
Property: Mole fraction of 1-phenylethanone (Gas); method: Chromatography
Temperature, K	Pressure, kPa	Mole fraction of 1-phenylethanone	uncertainty
313.2	7300	.00306	.000306
313.2	8100	.00694	.000694
313.2	8500	.0161	.00161
313.2	8800	.0234	.00234
313.2	9200	.038	.0038
313.2	10500	.0587	.00587
313.2	13200	.0783	.00783
333.2	8700	.00461	.000461
333.2	10000	.00876	.000876
333.2	10900	.0155	.00155
333.2	12100	.0275	.00275
333.2	13300	.0406	.00406
333.2	16700	.0671	.00671
353.2	10000	.00422	.000422
353.2	11800	.00724	.000724
353.2	13300	.0104	.00104
353.2	15300	.0156	.00156
353.2	17600	.0217	.00217
353.2	23200	.0307	.00307

System: carbon dioxide + .alpha.-ionone + 1-butyl-3-methylimidazolium triflate; phases: Gas, Liquid
Fixed: Mole fraction of .alpha.-ionone = 0
Property: Mole fraction of .alpha.-ionone (Gas); method: Chromatography
Temperature, K	Pressure, kPa	Mole fraction of .alpha.-ionone	uncertainty
313.2	7300	.00369	.000369
313.2	8100	.011	.0011
313.2	8500	.0318	.00318
313.2	8800	.0467	.00467
313.2	9200	.0849	.00849
313.2	10500	.135	.0135
333.2	8700	.00581	.000581
333.2	10000	.0149	.00149
333.2	10900	.0302	.00302
333.2	12100	.0624	.00624
333.2	13300	.0965	.00965
353.2	10000	.00584	.000584
353.2	11800	.0125	.00125
353.2	13300	.0204	.00204
353.2	15300	.0349	.00349
353.2	17600	.0515	.00515

System: anyvim + carbon dioxide + 1-butyl-3-methylimidazolium triflate; phases: Gas, Liquid
Fixed: Mole fraction of anyvim = 0
Property: Mole fraction of anyvim (Gas); method: Chromatography
Temperature, K	Pressure, kPa	Mole fraction of anyvim	uncertainty
313.2	9200	.00469	.000469
313.2	10500	.00701	.000701
313.2	13200	.0101	.00101
333.2	10900	.00271	.000271
333.2	12100	.00439	.000439
333.2	13300	.00651	.000651
333.2	16700	.0114	.00114
353.2	11800	.0016	.00016
353.2	13300	.00211	.000211
353.2	15300	.00307	.000307
353.2	17600	.0045	.00045
353.2	23200	.00651	.000651

System: anisole + carbon dioxide + 1-butyl-3-methylimidazolium triflate; phases: Gas, Liquid
Fixed: Mole fraction of anisole = 0
Property: Mole fraction of anisole (Gas); method: Chromatography
Temperature, K	Pressure, kPa	Mole fraction of anisole	uncertainty
313.2	7300	.0131	.00131
313.2	8100	.0244	.00244
313.2	8500	.0465	.00465
313.2	8800	.0607	.00607
313.2	9200	.0859	.00859
333.2	8700	.0194	.00194
333.2	10000	.0324	.00324
333.2	10900	.048	.0048
333.2	12100	.0708	.00708
333.2	13300	.0913	.00913
353.2	10000	.017	.0017
353.2	11800	.0246	.00246
353.2	13300	.0308	.00308
353.2	15300	.0403	.00403
353.2	17600	.0478	.00478

System: carbon dioxide + bicyclo[5.3.0]decapentaene + 1-butyl-3-methylimidazolium triflate; phases: Gas, Liquid
Fixed: Mole fraction of bicyclo[5.3.0]decapentaene = 0
Property: Mole fraction of bicyclo[5.3.0]decapentaene (Gas); method: Chromatography
Temperature, K	Pressure, kPa	Mole fraction of bicyclo[5.3.0]decapentaene	uncertainty
313.2	9200	.0154	.00154
313.2	10500	.0247	.00247
313.2	13200	.0367	.00367
333.2	8700	.00173	.000173
333.2	10000	.00358	.000358
333.2	10900	.00623	.000623
333.2	12100	.0115	.00115
333.2	13300	.0178	.00178
333.2	16700	.0324	.00324
353.2	10000	.00174	.000174
353.2	11800	.00308	.000308
353.2	13300	.00456	.000456
353.2	15300	.00751	.000751
353.2	17600	.0109	.00109
353.2	23200	.0167	.00167

System: carbon dioxide + benzil + 1-butyl-3-methylimidazolium triflate; phases: Gas, Liquid
Fixed: Mole fraction of benzil = 0
Property: Mole fraction of benzil (Gas); method: Chromatography
Temperature, K	Pressure, kPa	Mole fraction of benzil	uncertainty
313.2	9200	.00536	.000536
313.2	10500	.00972	.000972
313.2	13200	.02	.002
333.2	10900	.00119	.000119
333.2	12100	.0031	.00031
333.2	13300	.00624	.000624
333.2	16700	.0159	.00159
353.2	11800	.000476	.0000476
353.2	13300	.000921	.0000921
353.2	15300	.00209	.000209
353.2	17600	.00415	.000415
353.2	23200	.00921	.000921

System: benzothiazole + carbon dioxide + 1-butyl-3-methylimidazolium triflate; phases: Gas, Liquid
Fixed: Mole fraction of benzothiazole = 0
Property: Mole fraction of benzothiazole (Gas); method: Chromatography
Temperature, K	Pressure, kPa	Mole fraction of benzothiazole	uncertainty
313.2	7300	.00119	.000119
313.2	8100	.00288	.000288
313.2	8500	.00711	.000711
313.2	8800	.0108	.00108
313.2	9200	.0181	.00181
313.2	10500	.0295	.00295
313.2	13200	.0444	.00444
333.2	8700	.00187	.000187
333.2	10000	.00379	.000379
333.2	10900	.0069	.00069
333.2	12100	.0128	.00128
333.2	13300	.0201	.00201
333.2	16700	.0366	.00366
353.2	10000	.00183	.000183
353.2	11800	.00328	.000328
353.2	13300	.00488	.000488
353.2	15300	.00796	.000796
353.2	17600	.012	.0012
353.2	23200	.0186	.00186

System: camphor + carbon dioxide + 1-butyl-3-methylimidazolium triflate; phases: Gas, Liquid
Fixed: Mole fraction of camphor = 0
Property: Mole fraction of camphor (Gas); method: Chromatography
Temperature, K	Pressure, kPa	Mole fraction of camphor	uncertainty
313.2	7300	.0083	.00083
313.2	8100	.0196	.00196
313.2	8500	.0453	.00453
313.2	8800	.0645	.00645
313.2	9200	.0985	.00985
313.2	10500	.156	.0156
333.2	8700	.0122	.00122
333.2	10000	.0245	.00245
333.2	10900	.0423	.00423
333.2	12100	.0718	.00718
333.2	13300	.1	.01
333.2	16700	.147	.0147
353.2	10000	.0109	.00109
353.2	11800	.0188	.00188
353.2	13300	.0268	.00268
353.2	15300	.0393	.00393
353.2	17600	.0496	.00496

System: 2(2H)-chromenone + carbon dioxide + 1-butyl-3-methylimidazolium triflate; phases: Gas, Liquid
Fixed: Mole fraction of 2(2H)-chromenone = 0
Property: Mole fraction of 2(2H)-chromenone (Gas); method: Chromatography
Temperature, K	Pressure, kPa	Mole fraction of 2(2H)-chromenone	uncertainty
313.2	9200	.00394	.000394
313.2	10500	.00716	.000716
313.2	13200	.0121	.00121
333.2	10900	.00111	.000111
333.2	12100	.00242	.000242
333.2	13300	.00434	.000434
333.2	16700	.00967	.000967
353.2	13300	.000836	.0000836
353.2	15300	.00159	.000159
353.2	17600	.0028	.00028
353.2	23200	.00561	.000561

System: carbon dioxide + diphenylene sulfide + 1-butyl-3-methylimidazolium triflate; phases: Gas, Liquid
Fixed: Mole fraction of diphenylene sulfide = 0
Property: Mole fraction of diphenylene sulfide (Gas); method: Chromatography
Temperature, K	Pressure, kPa	Mole fraction of diphenylene sulfide	uncertainty
313.2	8500	.00173	.000173
313.2	8800	.00304	.000304
313.2	9200	.00573	.000573
313.2	10500	.0103	.00103
313.2	13200	.0189	.00189
333.2	10900	.00176	.000176
333.2	12100	.00391	.000391
333.2	13300	.0071	.00071
333.2	16700	.016	.0016
353.2	11800	.000791	.0000791
353.2	13300	.00137	.000137
353.2	15300	.00268	.000268
353.2	17600	.00473	.000473
353.2	23200	.00955	.000955

System: benzenamine, N,N-dimethyl- + carbon dioxide + 1-butyl-3-methylimidazolium triflate; phases: Gas, Liquid
Fixed: Mole fraction of benzenamine, N,N-dimethyl- = 0
Property: Mole fraction of benzenamine, N,N-dimethyl- (Gas); method: Chromatography
Temperature, K	Pressure, kPa	Mole fraction of benzenamine, N,N-dimethyl-	uncertainty
313.2	7300	.00415	.000415
313.2	8100	.00985	.000985
313.2	8500	.0223	.00223
313.2	8800	.0286	.00286
313.2	9200	.0444	.00444
313.2	10500	.0639	.00639
313.2	13200	.0897	.00897
333.2	8700	.00775	.000775
333.2	10000	.0145	.00145
333.2	10900	.0239	.00239
333.2	12100	.038	.0038
333.2	13300	.0512	.00512
333.2	16700	.0815	.00815
353.2	10000	.00726	.000726
353.2	11800	.011	.0011
353.2	13300	.0152	.00152
353.2	15300	.0211	.00211
353.2	17600	.0282	.00282
353.2	23200	.0363	.00363

System: naphthalene + carbon dioxide + 1-butyl-3-methylimidazolium triflate; phases: Gas, Liquid
Fixed: Mole fraction of naphthalene = 0
Property: Mole fraction of naphthalene (Gas); method: Chromatography
Temperature, K	Pressure, kPa	Mole fraction of naphthalene	uncertainty
313.2	7300	.0027	.00027
313.2	8100	.00594	.000594
313.2	8500	.0134	.00134
313.2	8800	.0195	.00195
313.2	9200	.0308	.00308
313.2	10500	.0469	.00469
313.2	13200	.0655	.00655
333.2	8700	.0043	.00043
333.2	10000	.00828	.000828
333.2	10900	.0138	.00138
333.2	12100	.0238	.00238
333.2	13300	.0351	.00351
333.2	16700	.0575	.00575
353.2	10000	.00413	.000413
353.2	11800	.00692	.000692
353.2	13300	.00973	.000973
353.2	15300	.0147	.00147
353.2	17600	.0203	.00203
353.2	23200	.0274	.00274

System: aniline, N-methyl- + carbon dioxide + 1-butyl-3-methylimidazolium triflate; phases: Gas, Liquid
Fixed: Mole fraction of aniline, N-methyl- = 0
Property: Mole fraction of aniline, N-methyl- (Gas); method: Chromatography
Temperature, K	Pressure, kPa	Mole fraction of aniline, N-methyl-	uncertainty
313.2	8100	.00226	.000226
313.2	8500	.0049	.00049
313.2	8800	.00669	.000669
313.2	9200	.0105	.00105
313.2	10500	.016	.0016
313.2	13200	.0242	.00242
333.2	8700	.0018	.00018
333.2	10000	.00342	.000342
333.2	10900	.00567	.000567
333.2	12100	.0094	.00094
333.2	13300	.0137	.00137
333.2	16700	.0239	.00239
353.2	10000	.00192	.000192
353.2	11800	.00302	.000302
353.2	13300	.00423	.000423
353.2	15300	.00627	.000627
353.2	17600	.00893	.000893
353.2	23200	.0136	.00136

System: 1-hydroxy-4-methylbenzene + carbon dioxide + 1-butyl-3-methylimidazolium triflate; phases: Gas, Liquid
Fixed: Mole fraction of 1-hydroxy-4-methylbenzene = 0
Property: Mole fraction of 1-hydroxy-4-methylbenzene (Gas); method: Chromatography
Temperature, K	Pressure, kPa	Mole fraction of 1-hydroxy-4-methylbenzene	uncertainty
313.2	10500	.000585	.0000585
313.2	13200	.00222	.000222
333.2	10900	.000525	.0000525
333.2	12100	.000936	.0000936
333.2	13300	.00139	.000139
333.2	16700	.00251	.000251
353.2	13300	.000479	.0000479
353.2	15300	.000765	.0000765
353.2	17600	.00111	.000111
353.2	23200	.00181	.000181

System: carbon dioxide + phenoxathiin + 1-butyl-3-methylimidazolium triflate; phases: Gas, Liquid
Fixed: Mole fraction of phenoxathiin = 0
Property: Mole fraction of phenoxathiin (Gas); method: Chromatography
Temperature, K	Pressure, kPa	Mole fraction of phenoxathiin	uncertainty
313.2	8500	.00265	.000265
313.2	8800	.00438	.000438
313.2	9200	.0087	.00087
313.2	10500	.0164	.00164
313.2	13200	.0293	.00293
333.2	10900	.00259	.000259
333.2	12100	.00586	.000586
333.2	13300	.0107	.00107
333.2	16700	.0242	.00242
353.2	10000	.000485	.0000485
353.2	11800	.00113	.000113
353.2	13300	.00197	.000197
353.2	15300	.00395	.000395
353.2	17600	.00702	.000702
353.2	23200	.0136	.00136

System: carbon dioxide + pyrene + 1-butyl-3-methylimidazolium triflate; phases: Gas, Liquid
Fixed: Mole fraction of pyrene = 0
Property: Mole fraction of pyrene (Gas); method: Chromatography
Temperature, K	Pressure, kPa	Mole fraction of pyrene	uncertainty
313.2	9200	.00141	.000141
313.2	10500	.00315	.000315
313.2	13200	.00634	.000634
333.2	10900	.000436	.0000436
333.2	12100	.00108	.000108
333.2	13300	.00214	.000214
333.2	16700	.00547	.000547
353.2	13300	.00036	.000036
353.2	15300	.000801	.0000801
353.2	17600	.00154	.000154
353.2	23200	.00366	.000366

System: thianaphthene + carbon dioxide + 1-butyl-3-methylimidazolium triflate; phases: Gas, Liquid
Fixed: Mole fraction of thianaphthene = 0
Property: Mole fraction of thianaphthene (Gas); method: Chromatography
Temperature, K	Pressure, kPa	Mole fraction of thianaphthene	uncertainty
313.2	7300	.00208	.000208
313.2	8100	.0046	.00046
313.2	8500	.0104	.00104
313.2	8800	.0153	.00153
313.2	9200	.0245	.00245
313.2	10500	.038	.0038
313.2	13200	.0541	.00541
333.2	8700	.00335	.000335
333.2	10000	.00619	.000619
333.2	10900	.0108	.00108
333.2	12100	.0189	.00189
333.2	13300	.028	.0028
333.2	16700	.0479	.00479
353.2	10000	.00326	.000326
353.2	11800	.00548	.000548
353.2	13300	.00776	.000776
353.2	15300	.0116	.00116
353.2	17600	.0167	.00167
353.2	23200	.0241	.00241

System: dibenzo-1,4-dithiin + carbon dioxide + 1-butyl-3-methylimidazolium triflate; phases: Gas, Liquid
Fixed: Mole fraction of dibenzo-1,4-dithiin = 0
Property: Mole fraction of dibenzo-1,4-dithiin (Gas); method: Chromatography
Temperature, K	Pressure, kPa	Mole fraction of dibenzo-1,4-dithiin	uncertainty
313.2	9200	.00438	.000438
313.2	10500	.0076	.00076
313.2	13200	.0155	.00155
333.2	10900	.00122	.000122
333.2	12100	.00293	.000293
333.2	13300	.00564	.000564
333.2	16700	.014	.0014
353.2	13300	.000969	.0000969
353.2	15300	.00207	.000207
353.2	17600	.00394	.000394
353.2	23200	.00867	.000867

System: benzene, 1,2-dimethoxy- + carbon dioxide + 1-butyl-3-methylimidazolium triflate; phases: Gas, Liquid
Fixed: Mole fraction of benzene, 1,2-dimethoxy- = 0
Property: Mole fraction of benzene, 1,2-dimethoxy- (Gas); method: Chromatography
Temperature, K	Pressure, kPa	Mole fraction of benzene, 1,2-dimethoxy-	uncertainty
313.2	7300	.00185	.000185
313.2	8100	.00446	.000446
313.2	8500	.0108	.00108
313.2	8800	.0164	.00164
313.2	9200	.0272	.00272
313.2	10500	.0425	.00425
333.2	8700	.0031	.00031
333.2	10000	.00646	.000646
333.2	10900	.0113	.00113
333.2	12100	.0205	.00205
333.2	13300	.031	.0031
353.2	10000	.00321	.000321
353.2	11800	.00568	.000568
353.2	13300	.00834	.000834
353.2	15300	.0137	.00137
353.2	17600	.0195	.00195
353.2	23200	.0268	.00268

System: indole + carbon dioxide + 1-butyl-3-methylimidazolium triflate; phases: Gas, Liquid
Fixed: Mole fraction of indole = 0
Property: Mole fraction of indole (Gas); method: Chromatography
Temperature, K	Pressure, kPa	Mole fraction of indole	uncertainty
333.2	12100	.00048	.000048
333.2	13300	.000772	.0000772
333.2	16700	.00151	.000151
353.2	15300	.000379	.0000379
353.2	17600	.000578	.0000578
353.2	23200	.00106	.000106

System: carbolic acid + carbon dioxide + 1-butyl-3-methylimidazolium triflate; phases: Gas, Liquid
Fixed: Mole fraction of carbolic acid = 0
Property: Mole fraction of carbolic acid (Gas); method: Chromatography
Temperature, K	Pressure, kPa	Mole fraction of carbolic acid	uncertainty
333.2	12100	.00079	.000079
333.2	13300	.00117	.000117
333.2	16700	.00202	.000202
353.2	15300	.000654	.0000654
353.2	17600	.000933	.0000933
353.2	23200	.00143	.000143
