Measured thermophysical data. Influence of Solvent Nature on the Solubility of Halogenated Alkanes
Source: J. Chem. Eng. Data, 2012, 10.1021/je300127e
Compound 1: dichloromethane, CH2Cl2, purity 99%
Compound 2: freon 20, CHCl3, purity 99%
Compound 3: carbon tetrachloride, CCl4, purity 99%
Compound 4: 1-chloropropane, C3H7Cl, purity 99%
Compound 5: isopropyl chloride, C3H7Cl, purity 99%
Compound 6: butyl chloride, C4H9Cl, purity 99%
Compound 7: propane, 1-chloro-2-methyl-, C4H9Cl, purity 99%
Compound 8: tribromomethane, CHBr3, purity 99%
Compound 9: propane, 1-bromo-, C3H7Br, purity 99%
Compound 10: propane, 2-bromo-, C3H7Br, purity 99%
Compound 11: n-butyl bromide, C4H9Br, purity 99%
Compound 12: isobutyl bromide, C4H9Br, purity 99%
Compound 13: 1-bromopentane, C5H11Br, purity 99%
Compound 14: 1-bromoheptane, C7H15Br, purity 99%
Compound 15: n-heptadecyl bromide, C17H35Br, purity 99%
Compound 16: iodoethane, C2H5I, purity 99%
Compound 17: 1-iodopropane, C3H7I, purity 99%
Compound 18: sec-propyl iodide, C3H7I, purity 99%
Compound 19: 1-iodo-2-methylpropane, C4H9I, purity 99%
Compound 20: n-octane, C8H18, purity 99%
Compound 21: heptane, C7H16, purity 99%
Compound 22: cyclohexane, C6H12, purity 99%
Compound 23: n-hexane, C6H14, purity 99%
Compound 24: benzene, C6H6, purity 99%
Compound 25: 1,4-dioxane, C4H8O2, purity 99%
Compound 26: toluene, C7H8, purity 99%
Compound 27: 1,2-dimethylbenzene, C8H10, purity 99%
Compound 28: 1,3-xylene, C8H10, purity 99%
Compound 29: ethyl ethanoate, C4H8O2, purity 99%
Compound 30: monochlorobenzene, C6H5Cl, purity 99%
Compound 31: ethanol, C2H6O, purity 99%
Compound 32: n-butyl alcohol, C4H10O, purity 99%
Compound 33: 2-methyl-1-propanol, C4H10O, purity 99%
Compound 34: acetone, C3H6O, purity 99%
Compound 35: nitrobenzene, C6H5NO2, purity 99%

System: dichloromethane + n-octane; phases: Liquid mixture 1, Liquid mixture 2
Fixed: Pressure, kPa = 101
Property: Mole fraction of dichloromethane (Liquid mixture 1); method: Chromatography
Temperature, K	Mole fraction of dichloromethane	uncertainty
298.15	.316	.00632

System: dichloromethane + heptane; phases: Liquid mixture 1, Liquid mixture 2
Fixed: Pressure, kPa = 101
Property: Mole fraction of dichloromethane (Liquid mixture 1); method: Chromatography
Temperature, K	Mole fraction of dichloromethane	uncertainty
298.15	.181	.00362

System: dichloromethane + cyclohexane; phases: Liquid mixture 1, Liquid mixture 2
Fixed: Pressure, kPa = 101
Property: Mole fraction of dichloromethane (Liquid mixture 1); method: Chromatography
Temperature, K	Mole fraction of dichloromethane	uncertainty
298.15	.125	.0025

System: dichloromethane + n-hexane; phases: Liquid mixture 1, Liquid mixture 2
Fixed: Pressure, kPa = 101
Property: Mole fraction of dichloromethane (Liquid mixture 1); method: Chromatography
Temperature, K	Mole fraction of dichloromethane	uncertainty
298.15	.334	.00668

System: carbon tetrachloride + dichloromethane; phases: Liquid mixture 1, Liquid mixture 2
Fixed: Pressure, kPa = 101
Property: Mole fraction of dichloromethane (Liquid mixture 1); method: Chromatography
Temperature, K	Mole fraction of dichloromethane	uncertainty
298.15	.419	.00838

System: benzene + dichloromethane; phases: Liquid mixture 1, Liquid mixture 2
Fixed: Pressure, kPa = 101
Property: Mole fraction of dichloromethane (Liquid mixture 1); method: Chromatography
Temperature, K	Mole fraction of dichloromethane	uncertainty
298.15	.155	.0031

System: dichloromethane + 1,4-dioxane; phases: Liquid mixture 1, Liquid mixture 2
Fixed: Pressure, kPa = 101
Property: Mole fraction of dichloromethane (Liquid mixture 1); method: Chromatography
Temperature, K	Mole fraction of dichloromethane	uncertainty
298.15	.051	.00102

System: dichloromethane + toluene; phases: Liquid mixture 1, Liquid mixture 2
Fixed: Pressure, kPa = 101
Property: Mole fraction of dichloromethane (Liquid mixture 1); method: Chromatography
Temperature, K	Mole fraction of dichloromethane	uncertainty
298.15	.233	.00466

System: dichloromethane + 1,2-dimethylbenzene; phases: Liquid mixture 1, Liquid mixture 2
Fixed: Pressure, kPa = 101
Property: Mole fraction of dichloromethane (Liquid mixture 1); method: Chromatography
Temperature, K	Mole fraction of dichloromethane	uncertainty
298.15	.194	.00388

System: dichloromethane + 1,3-xylene; phases: Liquid mixture 1, Liquid mixture 2
Fixed: Pressure, kPa = 101
Property: Mole fraction of dichloromethane (Liquid mixture 1); method: Chromatography
Temperature, K	Mole fraction of dichloromethane	uncertainty
298.15	.172	.00344

System: dichloromethane + ethyl ethanoate; phases: Liquid mixture 1, Liquid mixture 2
Fixed: Pressure, kPa = 101
Property: Mole fraction of dichloromethane (Liquid mixture 1); method: Chromatography
Temperature, K	Mole fraction of dichloromethane	uncertainty
298.15	.034	.00068

System: freon 20 + dichloromethane; phases: Liquid mixture 1, Liquid mixture 2
Fixed: Pressure, kPa = 101
Property: Mole fraction of dichloromethane (Liquid mixture 1); method: Chromatography
Temperature, K	Mole fraction of dichloromethane	uncertainty
298.15	.06	.0012

System: dichloromethane + monochlorobenzene; phases: Liquid mixture 1, Liquid mixture 2
Fixed: Pressure, kPa = 101
Property: Mole fraction of dichloromethane (Liquid mixture 1); method: Chromatography
Temperature, K	Mole fraction of dichloromethane	uncertainty
298.15	.188	.00376

System: n-butyl alcohol + dichloromethane; phases: Liquid mixture 1, Liquid mixture 2
Fixed: Pressure, kPa = 101
Property: Mole fraction of dichloromethane (Liquid mixture 1); method: Chromatography
Temperature, K	Mole fraction of dichloromethane	uncertainty
298.15	.135	.0027

System: dichloromethane + 2-methyl-1-propanol; phases: Liquid mixture 1, Liquid mixture 2
Fixed: Pressure, kPa = 101
Property: Mole fraction of dichloromethane (Liquid mixture 1); method: Chromatography
Temperature, K	Mole fraction of dichloromethane	uncertainty
298.15	.212	.00424

System: acetone + dichloromethane; phases: Liquid mixture 1, Liquid mixture 2
Fixed: Pressure, kPa = 101
Property: Mole fraction of dichloromethane (Liquid mixture 1); method: Chromatography
Temperature, K	Mole fraction of dichloromethane	uncertainty
298.15	.216	.00432

System: dichloromethane + nitrobenzene; phases: Liquid mixture 1, Liquid mixture 2
Fixed: Pressure, kPa = 101
Property: Mole fraction of dichloromethane (Liquid mixture 1); method: Chromatography
Temperature, K	Mole fraction of dichloromethane	uncertainty
298.15	.146	.00292

System: freon 20 + n-octane; phases: Liquid mixture 1, Liquid mixture 2
Fixed: Pressure, kPa = 101
Property: Mole fraction of freon 20 (Liquid mixture 1); method: Chromatography
Temperature, K	Mole fraction of freon 20	uncertainty
298.15	.267	.00534

System: freon 20 + heptane; phases: Liquid mixture 1, Liquid mixture 2
Fixed: Pressure, kPa = 101
Property: Mole fraction of freon 20 (Liquid mixture 1); method: Chromatography
Temperature, K	Mole fraction of freon 20	uncertainty
298.15	.324	.00648

System: freon 20 + cyclohexane; phases: Liquid mixture 1, Liquid mixture 2
Fixed: Pressure, kPa = 101
Property: Mole fraction of freon 20 (Liquid mixture 1); method: Chromatography
Temperature, K	Mole fraction of freon 20	uncertainty
298.15	.291	.00582

System: carbon tetrachloride + freon 20; phases: Liquid mixture 1, Liquid mixture 2
Fixed: Pressure, kPa = 101
Property: Mole fraction of freon 20 (Liquid mixture 1); method: Chromatography
Temperature, K	Mole fraction of freon 20	uncertainty
298.15	.282	.00564

System: carbon tetrachloride + freon 20; phases: Liquid mixture 2, Liquid mixture 1
Fixed: Pressure, kPa = 101
Property: Mole fraction of carbon tetrachloride (Liquid mixture 2); method: Chromatography
Temperature, K	Mole fraction of carbon tetrachloride	uncertainty
25	.072	.00144

System: freon 20 + benzene; phases: Liquid mixture 1, Liquid mixture 2
Fixed: Pressure, kPa = 101
Property: Mole fraction of freon 20 (Liquid mixture 1); method: Chromatography
Temperature, K	Mole fraction of freon 20	uncertainty
298.15	.252	.00504

System: freon 20 + 1,4-dioxane; phases: Liquid mixture 1, Liquid mixture 2
Fixed: Pressure, kPa = 101
Property: Mole fraction of freon 20 (Liquid mixture 1); method: Chromatography
Temperature, K	Mole fraction of freon 20	uncertainty
298.15	.272	.00544

System: freon 20 + toluene; phases: Liquid mixture 1, Liquid mixture 2
Fixed: Pressure, kPa = 101
Property: Mole fraction of freon 20 (Liquid mixture 1); method: Chromatography
Temperature, K	Mole fraction of freon 20	uncertainty
298.15	.197	.00394

System: freon 20 + 1,2-dimethylbenzene; phases: Liquid mixture 1, Liquid mixture 2
Fixed: Pressure, kPa = 101
Property: Mole fraction of freon 20 (Liquid mixture 1); method: Chromatography
Temperature, K	Mole fraction of freon 20	uncertainty
298.15	.355	.0071

System: freon 20 + 1,3-xylene; phases: Liquid mixture 1, Liquid mixture 2
Fixed: Pressure, kPa = 101
Property: Mole fraction of freon 20 (Liquid mixture 1); method: Chromatography
Temperature, K	Mole fraction of freon 20	uncertainty
298.15	.214	.00428

System: freon 20 + ethyl ethanoate; phases: Liquid mixture 1, Liquid mixture 2
Fixed: Pressure, kPa = 101
Property: Mole fraction of freon 20 (Liquid mixture 1); method: Chromatography
Temperature, K	Mole fraction of freon 20	uncertainty
298.15	.221	.00442

System: freon 20 + monochlorobenzene; phases: Liquid mixture 1, Liquid mixture 2
Fixed: Pressure, kPa = 101
Property: Mole fraction of freon 20 (Liquid mixture 1); method: Chromatography
Temperature, K	Mole fraction of freon 20	uncertainty
298.15	.24	.0048

System: freon 20 + n-butyl alcohol; phases: Liquid mixture 1, Liquid mixture 2
Fixed: Pressure, kPa = 101
Property: Mole fraction of freon 20 (Liquid mixture 1); method: Chromatography
Temperature, K	Mole fraction of freon 20	uncertainty
298.15	.15	.003

System: freon 20 + 2-methyl-1-propanol; phases: Liquid mixture 1, Liquid mixture 2
Fixed: Pressure, kPa = 101
Property: Mole fraction of freon 20 (Liquid mixture 1); method: Chromatography
Temperature, K	Mole fraction of freon 20	uncertainty
298.15	.222	.00444

System: acetone + freon 20; phases: Liquid mixture 1, Liquid mixture 2
Fixed: Pressure, kPa = 101
Property: Mole fraction of freon 20 (Liquid mixture 1); method: Chromatography
Temperature, K	Mole fraction of freon 20	uncertainty
298.15	.235	.0047

System: freon 20 + nitrobenzene; phases: Liquid mixture 1, Liquid mixture 2
Fixed: Pressure, kPa = 101
Property: Mole fraction of freon 20 (Liquid mixture 1); method: Chromatography
Temperature, K	Mole fraction of freon 20	uncertainty
298.15	.287	.00574

System: carbon tetrachloride + n-octane; phases: Liquid mixture 1, Liquid mixture 2
Fixed: Pressure, kPa = 101
Property: Mole fraction of carbon tetrachloride (Liquid mixture 1); method: Chromatography
Temperature, K	Mole fraction of carbon tetrachloride	uncertainty
298.15	.116	.00232

System: carbon tetrachloride + heptane; phases: Liquid mixture 1, Liquid mixture 2
Fixed: Pressure, kPa = 101
Property: Mole fraction of carbon tetrachloride (Liquid mixture 1); method: Chromatography
Temperature, K	Mole fraction of carbon tetrachloride	uncertainty
298.15	.095	.0019

System: carbon tetrachloride + cyclohexane; phases: Liquid mixture 1, Liquid mixture 2
Fixed: Pressure, kPa = 101
Property: Mole fraction of carbon tetrachloride (Liquid mixture 1); method: Chromatography
Temperature, K	Mole fraction of carbon tetrachloride	uncertainty
298.15	.098	.00196

System: carbon tetrachloride + n-hexane; phases: Liquid mixture 1, Liquid mixture 2
Fixed: Pressure, kPa = 101
Property: Mole fraction of carbon tetrachloride (Liquid mixture 1); method: Chromatography
Temperature, K	Mole fraction of carbon tetrachloride	uncertainty
298.15	.104	.00208

System: carbon tetrachloride + benzene; phases: Liquid mixture 1, Liquid mixture 2
Fixed: Pressure, kPa = 101
Property: Mole fraction of carbon tetrachloride (Liquid mixture 1); method: Chromatography
Temperature, K	Mole fraction of carbon tetrachloride	uncertainty
298.15	.101	.00202

System: carbon tetrachloride + 1,4-dioxane; phases: Liquid mixture 1, Liquid mixture 2
Fixed: Pressure, kPa = 101
Property: Mole fraction of carbon tetrachloride (Liquid mixture 1); method: Chromatography
Temperature, K	Mole fraction of carbon tetrachloride	uncertainty
298.15	.117	.00234

System: carbon tetrachloride + toluene; phases: Liquid mixture 1, Liquid mixture 2
Fixed: Pressure, kPa = 101
Property: Mole fraction of carbon tetrachloride (Liquid mixture 1); method: Chromatography
Temperature, K	Mole fraction of carbon tetrachloride	uncertainty
298.15	.133	.00266

System: carbon tetrachloride + 1,2-dimethylbenzene; phases: Liquid mixture 1, Liquid mixture 2
Fixed: Pressure, kPa = 101
Property: Mole fraction of carbon tetrachloride (Liquid mixture 1); method: Chromatography
Temperature, K	Mole fraction of carbon tetrachloride	uncertainty
298.15	.174	.00348

System: carbon tetrachloride + 1,3-xylene; phases: Liquid mixture 1, Liquid mixture 2
Fixed: Pressure, kPa = 101
Property: Mole fraction of carbon tetrachloride (Liquid mixture 1); method: Chromatography
Temperature, K	Mole fraction of carbon tetrachloride	uncertainty
298.15	.105	.0021

System: carbon tetrachloride + monochlorobenzene; phases: Liquid mixture 1, Liquid mixture 2
Fixed: Pressure, kPa = 101
Property: Mole fraction of carbon tetrachloride (Liquid mixture 1); method: Chromatography
Temperature, K	Mole fraction of carbon tetrachloride	uncertainty
298.15	.165	.0033

System: carbon tetrachloride + 2-methyl-1-propanol; phases: Liquid mixture 1, Liquid mixture 2
Fixed: Pressure, kPa = 101
Property: Mole fraction of carbon tetrachloride (Liquid mixture 1); method: Chromatography
Temperature, K	Mole fraction of carbon tetrachloride	uncertainty
298.15	.09	.0018

System: carbon tetrachloride + acetone; phases: Liquid mixture 1, Liquid mixture 2
Fixed: Pressure, kPa = 101
Property: Mole fraction of carbon tetrachloride (Liquid mixture 1); method: Chromatography
Temperature, K	Mole fraction of carbon tetrachloride	uncertainty
298.15	.111	.00222

System: carbon tetrachloride + nitrobenzene; phases: Liquid mixture 1, Liquid mixture 2
Fixed: Pressure, kPa = 101
Property: Mole fraction of carbon tetrachloride (Liquid mixture 1); method: Chromatography
Temperature, K	Mole fraction of carbon tetrachloride	uncertainty
298.15	.111	.00222

System: n-octane + 1-chloropropane; phases: Liquid mixture 1, Liquid mixture 2
Fixed: Pressure, kPa = 101
Property: Mole fraction of 1-chloropropane (Liquid mixture 1); method: Chromatography
Temperature, K	Mole fraction of 1-chloropropane	uncertainty
298.15	.353	.00706

System: heptane + 1-chloropropane; phases: Liquid mixture 1, Liquid mixture 2
Fixed: Pressure, kPa = 101
Property: Mole fraction of 1-chloropropane (Liquid mixture 1); method: Chromatography
Temperature, K	Mole fraction of 1-chloropropane	uncertainty
298.15	.318	.00636

System: cyclohexane + 1-chloropropane; phases: Liquid mixture 1, Liquid mixture 2
Fixed: Pressure, kPa = 101
Property: Mole fraction of 1-chloropropane (Liquid mixture 1); method: Chromatography
Temperature, K	Mole fraction of 1-chloropropane	uncertainty
298.15	.317	.00634

System: n-hexane + 1-chloropropane; phases: Liquid mixture 1, Liquid mixture 2
Fixed: Pressure, kPa = 101
Property: Mole fraction of 1-chloropropane (Liquid mixture 1); method: Chromatography
Temperature, K	Mole fraction of 1-chloropropane	uncertainty
298.15	.319	.00638

System: carbon tetrachloride + 1-chloropropane; phases: Liquid mixture 1, Liquid mixture 2
Fixed: Pressure, kPa = 101
Property: Mole fraction of 1-chloropropane (Liquid mixture 1); method: Chromatography
Temperature, K	Mole fraction of 1-chloropropane	uncertainty
298.15	.32	.0064

System: benzene + 1-chloropropane; phases: Liquid mixture 1, Liquid mixture 2
Fixed: Pressure, kPa = 101
Property: Mole fraction of 1-chloropropane (Liquid mixture 1); method: Chromatography
Temperature, K	Mole fraction of 1-chloropropane	uncertainty
298.15	.353	.00706

System: 1,4-dioxane + 1-chloropropane; phases: Liquid mixture 1, Liquid mixture 2
Fixed: Pressure, kPa = 101
Property: Mole fraction of 1-chloropropane (Liquid mixture 1); method: Chromatography
Temperature, K	Mole fraction of 1-chloropropane	uncertainty
298.15	.306	.00612

System: toluene + 1-chloropropane; phases: Liquid mixture 1, Liquid mixture 2
Fixed: Pressure, kPa = 101
Property: Mole fraction of 1-chloropropane (Liquid mixture 1); method: Chromatography
Temperature, K	Mole fraction of 1-chloropropane	uncertainty
298.15	.186	.00372

System: 1,2-dimethylbenzene + 1-chloropropane; phases: Liquid mixture 1, Liquid mixture 2
Fixed: Pressure, kPa = 101
Property: Mole fraction of 1-chloropropane (Liquid mixture 1); method: Chromatography
Temperature, K	Mole fraction of 1-chloropropane	uncertainty
298.15	.191	.00382

System: 1,3-xylene + 1-chloropropane; phases: Liquid mixture 1, Liquid mixture 2
Fixed: Pressure, kPa = 101
Property: Mole fraction of 1-chloropropane (Liquid mixture 1); method: Chromatography
Temperature, K	Mole fraction of 1-chloropropane	uncertainty
298.15	.183	.00366

System: freon 20 + 1-chloropropane; phases: Liquid mixture 1, Liquid mixture 2
Fixed: Pressure, kPa = 101
Property: Mole fraction of 1-chloropropane (Liquid mixture 1); method: Chromatography
Temperature, K	Mole fraction of 1-chloropropane	uncertainty
298.15	.256	.00512

System: monochlorobenzene + 1-chloropropane; phases: Liquid mixture 1, Liquid mixture 2
Fixed: Pressure, kPa = 101
Property: Mole fraction of 1-chloropropane (Liquid mixture 1); method: Chromatography
Temperature, K	Mole fraction of 1-chloropropane	uncertainty
298.15	.211	.00422

System: n-butyl alcohol + 1-chloropropane; phases: Liquid mixture 1, Liquid mixture 2
Fixed: Pressure, kPa = 101
Property: Mole fraction of 1-chloropropane (Liquid mixture 1); method: Chromatography
Temperature, K	Mole fraction of 1-chloropropane	uncertainty
298.15	.202	.00404

System: 2-methyl-1-propanol + 1-chloropropane; phases: Liquid mixture 1, Liquid mixture 2
Fixed: Pressure, kPa = 101
Property: Mole fraction of 1-chloropropane (Liquid mixture 1); method: Chromatography
Temperature, K	Mole fraction of 1-chloropropane	uncertainty
298.15	.225	.0045

System: acetone + 1-chloropropane; phases: Liquid mixture 1, Liquid mixture 2
Fixed: Pressure, kPa = 101
Property: Mole fraction of 1-chloropropane (Liquid mixture 1); method: Chromatography
Temperature, K	Mole fraction of 1-chloropropane	uncertainty
298.15	.213	.00426

System: nitrobenzene + 1-chloropropane; phases: Liquid mixture 1, Liquid mixture 2
Fixed: Pressure, kPa = 101
Property: Mole fraction of 1-chloropropane (Liquid mixture 1); method: Chromatography
Temperature, K	Mole fraction of 1-chloropropane	uncertainty
298.15	.218	.00436

System: isopropyl chloride + n-octane; phases: Liquid mixture 1, Liquid mixture 2
Fixed: Pressure, kPa = 101
Property: Mole fraction of isopropyl chloride (Liquid mixture 1); method: Chromatography
Temperature, K	Mole fraction of isopropyl chloride	uncertainty
298.15	.208	.00416

System: isopropyl chloride + heptane; phases: Liquid mixture 1, Liquid mixture 2
Fixed: Pressure, kPa = 101
Property: Mole fraction of isopropyl chloride (Liquid mixture 1); method: Chromatography
Temperature, K	Mole fraction of isopropyl chloride	uncertainty
298.15	.179	.00358

System: isopropyl chloride + cyclohexane; phases: Liquid mixture 1, Liquid mixture 2
Fixed: Pressure, kPa = 101
Property: Mole fraction of isopropyl chloride (Liquid mixture 1); method: Chromatography
Temperature, K	Mole fraction of isopropyl chloride	uncertainty
298.15	.184	.00368

System: isopropyl chloride + n-hexane; phases: Liquid mixture 1, Liquid mixture 2
Fixed: Pressure, kPa = 101
Property: Mole fraction of isopropyl chloride (Liquid mixture 1); method: Chromatography
Temperature, K	Mole fraction of isopropyl chloride	uncertainty
298.15	.248	.00496

System: carbon tetrachloride + isopropyl chloride; phases: Liquid mixture 1, Liquid mixture 2
Fixed: Pressure, kPa = 101
Property: Mole fraction of isopropyl chloride (Liquid mixture 1); method: Chromatography
Temperature, K	Mole fraction of isopropyl chloride	uncertainty
298.15	.269	.00538

System: benzene + isopropyl chloride; phases: Liquid mixture 1, Liquid mixture 2
Fixed: Pressure, kPa = 101
Property: Mole fraction of isopropyl chloride (Liquid mixture 1); method: Chromatography
Temperature, K	Mole fraction of isopropyl chloride	uncertainty
298.15	.161	.00322

System: isopropyl chloride + 1,4-dioxane; phases: Liquid mixture 1, Liquid mixture 2
Fixed: Pressure, kPa = 101
Property: Mole fraction of isopropyl chloride (Liquid mixture 1); method: Chromatography
Temperature, K	Mole fraction of isopropyl chloride	uncertainty
298.15	.154	.00308

System: isopropyl chloride + toluene; phases: Liquid mixture 1, Liquid mixture 2
Fixed: Pressure, kPa = 101
Property: Mole fraction of isopropyl chloride (Liquid mixture 1); method: Chromatography
Temperature, K	Mole fraction of isopropyl chloride	uncertainty
298.15	.245	.0049

System: isopropyl chloride + 1,2-dimethylbenzene; phases: Liquid mixture 1, Liquid mixture 2
Fixed: Pressure, kPa = 101
Property: Mole fraction of isopropyl chloride (Liquid mixture 1); method: Chromatography
Temperature, K	Mole fraction of isopropyl chloride	uncertainty
298.15	.216	.00432

System: isopropyl chloride + 1,3-xylene; phases: Liquid mixture 1, Liquid mixture 2
Fixed: Pressure, kPa = 101
Property: Mole fraction of isopropyl chloride (Liquid mixture 1); method: Chromatography
Temperature, K	Mole fraction of isopropyl chloride	uncertainty
298.15	.13	.0026

System: isopropyl chloride + ethyl ethanoate; phases: Liquid mixture 1, Liquid mixture 2
Fixed: Pressure, kPa = 101
Property: Mole fraction of isopropyl chloride (Liquid mixture 1); method: Chromatography
Temperature, K	Mole fraction of isopropyl chloride	uncertainty
298.15	.229	.00458

System: freon 20 + isopropyl chloride; phases: Liquid mixture 1, Liquid mixture 2
Fixed: Pressure, kPa = 101
Property: Mole fraction of isopropyl chloride (Liquid mixture 1); method: Chromatography
Temperature, K	Mole fraction of isopropyl chloride	uncertainty
298.15	.237	.00474

System: isopropyl chloride + monochlorobenzene; phases: Liquid mixture 1, Liquid mixture 2
Fixed: Pressure, kPa = 101
Property: Mole fraction of isopropyl chloride (Liquid mixture 1); method: Chromatography
Temperature, K	Mole fraction of isopropyl chloride	uncertainty
298.15	.275	.0055

System: n-butyl alcohol + isopropyl chloride; phases: Liquid mixture 1, Liquid mixture 2
Fixed: Pressure, kPa = 101
Property: Mole fraction of isopropyl chloride (Liquid mixture 1); method: Chromatography
Temperature, K	Mole fraction of isopropyl chloride	uncertainty
298.15	.17	.0034

System: isopropyl chloride + 2-methyl-1-propanol; phases: Liquid mixture 1, Liquid mixture 2
Fixed: Pressure, kPa = 101
Property: Mole fraction of isopropyl chloride (Liquid mixture 1); method: Chromatography
Temperature, K	Mole fraction of isopropyl chloride	uncertainty
298.15	.141	.00282

System: acetone + isopropyl chloride; phases: Liquid mixture 1, Liquid mixture 2
Fixed: Pressure, kPa = 101
Property: Mole fraction of isopropyl chloride (Liquid mixture 1); method: Chromatography
Temperature, K	Mole fraction of isopropyl chloride	uncertainty
298.15	.216	.00432

System: isopropyl chloride + nitrobenzene; phases: Liquid mixture 1, Liquid mixture 2
Fixed: Pressure, kPa = 101
Property: Mole fraction of isopropyl chloride (Liquid mixture 1); method: Chromatography
Temperature, K	Mole fraction of isopropyl chloride	uncertainty
298.15	.292	.00584

System: butyl chloride + n-octane; phases: Liquid mixture 1, Liquid mixture 2
Fixed: Pressure, kPa = 101
Property: Mole fraction of butyl chloride (Liquid mixture 1); method: Chromatography
Temperature, K	Mole fraction of butyl chloride	uncertainty
298.15	.272	.00544

System: butyl chloride + heptane; phases: Liquid mixture 1, Liquid mixture 2
Fixed: Pressure, kPa = 101
Property: Mole fraction of butyl chloride (Liquid mixture 1); method: Chromatography
Temperature, K	Mole fraction of butyl chloride	uncertainty
298.15	.23	.0046

System: butyl chloride + cyclohexane; phases: Liquid mixture 1, Liquid mixture 2
Fixed: Pressure, kPa = 101
Property: Mole fraction of butyl chloride (Liquid mixture 1); method: Chromatography
Temperature, K	Mole fraction of butyl chloride	uncertainty
298.15	.301	.00602

System: butyl chloride + n-hexane; phases: Liquid mixture 1, Liquid mixture 2
Fixed: Pressure, kPa = 101
Property: Mole fraction of butyl chloride (Liquid mixture 1); method: Chromatography
Temperature, K	Mole fraction of butyl chloride	uncertainty
298.15	.311	.00622

System: carbon tetrachloride + butyl chloride; phases: Liquid mixture 1, Liquid mixture 2
Fixed: Pressure, kPa = 101
Property: Mole fraction of butyl chloride (Liquid mixture 1); method: Chromatography
Temperature, K	Mole fraction of butyl chloride	uncertainty
298.15	.43	.0086

System: benzene + butyl chloride; phases: Liquid mixture 1, Liquid mixture 2
Fixed: Pressure, kPa = 101
Property: Mole fraction of butyl chloride (Liquid mixture 1); method: Chromatography
Temperature, K	Mole fraction of butyl chloride	uncertainty
298.15	.301	.00602

System: butyl chloride + 1,4-dioxane; phases: Liquid mixture 1, Liquid mixture 2
Fixed: Pressure, kPa = 101
Property: Mole fraction of butyl chloride (Liquid mixture 1); method: Chromatography
Temperature, K	Mole fraction of butyl chloride	uncertainty
298.15	.201	.00402

System: toluene + butyl chloride; phases: Liquid mixture 1, Liquid mixture 2
Fixed: Pressure, kPa = 101
Property: Mole fraction of butyl chloride (Liquid mixture 1); method: Chromatography
Temperature, K	Mole fraction of butyl chloride	uncertainty
298.15	.211	.00422

System: 1,2-dimethylbenzene + butyl chloride; phases: Liquid mixture 1, Liquid mixture 2
Fixed: Pressure, kPa = 101
Property: Mole fraction of butyl chloride (Liquid mixture 1); method: Chromatography
Temperature, K	Mole fraction of butyl chloride	uncertainty
298.15	.228	.00456

System: 1,3-xylene + butyl chloride; phases: Liquid mixture 1, Liquid mixture 2
Fixed: Pressure, kPa = 101
Property: Mole fraction of butyl chloride (Liquid mixture 1); method: Chromatography
Temperature, K	Mole fraction of butyl chloride	uncertainty
298.15	.16	.0032

System: butyl chloride + ethyl ethanoate; phases: Liquid mixture 1, Liquid mixture 2
Fixed: Pressure, kPa = 101
Property: Mole fraction of butyl chloride (Liquid mixture 1); method: Chromatography
Temperature, K	Mole fraction of butyl chloride	uncertainty
298.15	.217	.00434

System: freon 20 + butyl chloride; phases: Liquid mixture 1, Liquid mixture 2
Fixed: Pressure, kPa = 101
Property: Mole fraction of butyl chloride (Liquid mixture 1); method: Chromatography
Temperature, K	Mole fraction of butyl chloride	uncertainty
298.15	.22	.0044

System: monochlorobenzene + butyl chloride; phases: Liquid mixture 1, Liquid mixture 2
Fixed: Pressure, kPa = 101
Property: Mole fraction of butyl chloride (Liquid mixture 1); method: Chromatography
Temperature, K	Mole fraction of butyl chloride	uncertainty
298.15	.11	.0022

System: n-butyl alcohol + butyl chloride; phases: Liquid mixture 1, Liquid mixture 2
Fixed: Pressure, kPa = 101
Property: Mole fraction of butyl chloride (Liquid mixture 1); method: Chromatography
Temperature, K	Mole fraction of butyl chloride	uncertainty
298.15	.142	.00284

System: 2-methyl-1-propanol + butyl chloride; phases: Liquid mixture 1, Liquid mixture 2
Fixed: Pressure, kPa = 101
Property: Mole fraction of butyl chloride (Liquid mixture 1); method: Chromatography
Temperature, K	Mole fraction of butyl chloride	uncertainty
298.15	.18	.0036

System: acetone + butyl chloride; phases: Liquid mixture 1, Liquid mixture 2
Fixed: Pressure, kPa = 101
Property: Mole fraction of butyl chloride (Liquid mixture 1); method: Chromatography
Temperature, K	Mole fraction of butyl chloride	uncertainty
298.15	.17	.0034

System: nitrobenzene + butyl chloride; phases: Liquid mixture 1, Liquid mixture 2
Fixed: Pressure, kPa = 101
Property: Mole fraction of butyl chloride (Liquid mixture 1); method: Chromatography
Temperature, K	Mole fraction of butyl chloride	uncertainty
298.15	.172	.00344

System: n-octane + propane, 1-chloro-2-methyl-; phases: Liquid mixture 1, Liquid mixture 2
Fixed: Pressure, kPa = 101
Property: Mole fraction of propane, 1-chloro-2-methyl- (Liquid mixture 1); method: Chromatography
Temperature, K	Mole fraction of propane, 1-chloro-2-methyl-	uncertainty
298.15	.26	.0052

System: heptane + propane, 1-chloro-2-methyl-; phases: Liquid mixture 1, Liquid mixture 2
Fixed: Pressure, kPa = 101
Property: Mole fraction of propane, 1-chloro-2-methyl- (Liquid mixture 1); method: Chromatography
Temperature, K	Mole fraction of propane, 1-chloro-2-methyl-	uncertainty
298.15	.273	.00546

System: cyclohexane + propane, 1-chloro-2-methyl-; phases: Liquid mixture 1, Liquid mixture 2
Fixed: Pressure, kPa = 101
Property: Mole fraction of propane, 1-chloro-2-methyl- (Liquid mixture 1); method: Chromatography
Temperature, K	Mole fraction of propane, 1-chloro-2-methyl-	uncertainty
298.15	.283	.00566

System: n-hexane + propane, 1-chloro-2-methyl-; phases: Liquid mixture 1, Liquid mixture 2
Fixed: Pressure, kPa = 101
Property: Mole fraction of propane, 1-chloro-2-methyl- (Liquid mixture 1); method: Chromatography
Temperature, K	Mole fraction of propane, 1-chloro-2-methyl-	uncertainty
298.15	.29	.0058

System: carbon tetrachloride + propane, 1-chloro-2-methyl-; phases: Liquid mixture 1, Liquid mixture 2
Fixed: Pressure, kPa = 101
Property: Mole fraction of propane, 1-chloro-2-methyl- (Liquid mixture 1); method: Chromatography
Temperature, K	Mole fraction of propane, 1-chloro-2-methyl-	uncertainty
298.15	.402	.00804

System: benzene + propane, 1-chloro-2-methyl-; phases: Liquid mixture 1, Liquid mixture 2
Fixed: Pressure, kPa = 101
Property: Mole fraction of propane, 1-chloro-2-methyl- (Liquid mixture 1); method: Chromatography
Temperature, K	Mole fraction of propane, 1-chloro-2-methyl-	uncertainty
298.15	.283	.00566

System: 1,4-dioxane + propane, 1-chloro-2-methyl-; phases: Liquid mixture 1, Liquid mixture 2
Fixed: Pressure, kPa = 101
Property: Mole fraction of propane, 1-chloro-2-methyl- (Liquid mixture 1); method: Chromatography
Temperature, K	Mole fraction of propane, 1-chloro-2-methyl-	uncertainty
298.15	.179	.00358

System: toluene + propane, 1-chloro-2-methyl-; phases: Liquid mixture 1, Liquid mixture 2
Fixed: Pressure, kPa = 101
Property: Mole fraction of propane, 1-chloro-2-methyl- (Liquid mixture 1); method: Chromatography
Temperature, K	Mole fraction of propane, 1-chloro-2-methyl-	uncertainty
298.15	.19	.0038

System: 1,2-dimethylbenzene + propane, 1-chloro-2-methyl-; phases: Liquid mixture 1, Liquid mixture 2
Fixed: Pressure, kPa = 101
Property: Mole fraction of propane, 1-chloro-2-methyl- (Liquid mixture 1); method: Chromatography
Temperature, K	Mole fraction of propane, 1-chloro-2-methyl-	uncertainty
298.15	.201	.00402

System: 1,3-xylene + propane, 1-chloro-2-methyl-; phases: Liquid mixture 1, Liquid mixture 2
Fixed: Pressure, kPa = 101
Property: Mole fraction of propane, 1-chloro-2-methyl- (Liquid mixture 1); method: Chromatography
Temperature, K	Mole fraction of propane, 1-chloro-2-methyl-	uncertainty
298.15	.145	.0029

System: ethyl ethanoate + propane, 1-chloro-2-methyl-; phases: Liquid mixture 1, Liquid mixture 2
Fixed: Pressure, kPa = 101
Property: Mole fraction of propane, 1-chloro-2-methyl- (Liquid mixture 1); method: Chromatography
Temperature, K	Mole fraction of propane, 1-chloro-2-methyl-	uncertainty
298.15	.2	.004

System: freon 20 + propane, 1-chloro-2-methyl-; phases: Liquid mixture 1, Liquid mixture 2
Fixed: Pressure, kPa = 101
Property: Mole fraction of propane, 1-chloro-2-methyl- (Liquid mixture 1); method: Chromatography
Temperature, K	Mole fraction of propane, 1-chloro-2-methyl-	uncertainty
298.15	.203	.00406

System: monochlorobenzene + propane, 1-chloro-2-methyl-; phases: Liquid mixture 1, Liquid mixture 2
Fixed: Pressure, kPa = 101
Property: Mole fraction of propane, 1-chloro-2-methyl- (Liquid mixture 1); method: Chromatography
Temperature, K	Mole fraction of propane, 1-chloro-2-methyl-	uncertainty
298.15	.295	.0059

System: n-butyl alcohol + propane, 1-chloro-2-methyl-; phases: Liquid mixture 1, Liquid mixture 2
Fixed: Pressure, kPa = 101
Property: Mole fraction of propane, 1-chloro-2-methyl- (Liquid mixture 1); method: Chromatography
Temperature, K	Mole fraction of propane, 1-chloro-2-methyl-	uncertainty
298.15	.173	.00346

System: 2-methyl-1-propanol + propane, 1-chloro-2-methyl-; phases: Liquid mixture 1, Liquid mixture 2
Fixed: Pressure, kPa = 101
Property: Mole fraction of propane, 1-chloro-2-methyl- (Liquid mixture 1); method: Chromatography
Temperature, K	Mole fraction of propane, 1-chloro-2-methyl-	uncertainty
298.15	.17	.0034

System: acetone + propane, 1-chloro-2-methyl-; phases: Liquid mixture 1, Liquid mixture 2
Fixed: Pressure, kPa = 101
Property: Mole fraction of propane, 1-chloro-2-methyl- (Liquid mixture 1); method: Chromatography
Temperature, K	Mole fraction of propane, 1-chloro-2-methyl-	uncertainty
298.15	.156	.00312

System: nitrobenzene + propane, 1-chloro-2-methyl-; phases: Liquid mixture 1, Liquid mixture 2
Fixed: Pressure, kPa = 101
Property: Mole fraction of propane, 1-chloro-2-methyl- (Liquid mixture 1); method: Chromatography
Temperature, K	Mole fraction of propane, 1-chloro-2-methyl-	uncertainty
298.15	.16	.0032

System: tribromomethane + n-octane; phases: Liquid mixture 1, Liquid mixture 2
Fixed: Pressure, kPa = 101
Property: Mole fraction of tribromomethane (Liquid mixture 1); method: Chromatography
Temperature, K	Mole fraction of tribromomethane	uncertainty
298.15	.254	.00508

System: tribromomethane + heptane; phases: Liquid mixture 1, Liquid mixture 2
Fixed: Pressure, kPa = 101
Property: Mole fraction of tribromomethane (Liquid mixture 1); method: Chromatography
Temperature, K	Mole fraction of tribromomethane	uncertainty
298.15	.301	.00602

System: tribromomethane + cyclohexane; phases: Liquid mixture 1, Liquid mixture 2
Fixed: Pressure, kPa = 101
Property: Mole fraction of tribromomethane (Liquid mixture 1); method: Chromatography
Temperature, K	Mole fraction of tribromomethane	uncertainty
298.15	.24	.0048

System: tribromomethane + n-hexane; phases: Liquid mixture 1, Liquid mixture 2
Fixed: Pressure, kPa = 101
Property: Mole fraction of tribromomethane (Liquid mixture 1); method: Chromatography
Temperature, K	Mole fraction of tribromomethane	uncertainty
298.15	.247	.00494

System: carbon tetrachloride + tribromomethane; phases: Liquid mixture 1, Liquid mixture 2
Fixed: Pressure, kPa = 101
Property: Mole fraction of tribromomethane (Liquid mixture 1); method: Chromatography
Temperature, K	Mole fraction of tribromomethane	uncertainty
298.15	.289	.00578

System: benzene + tribromomethane; phases: Liquid mixture 1, Liquid mixture 2
Fixed: Pressure, kPa = 101
Property: Mole fraction of tribromomethane (Liquid mixture 1); method: Chromatography
Temperature, K	Mole fraction of tribromomethane	uncertainty
298.15	.23	.0046

System: tribromomethane + 1,4-dioxane; phases: Liquid mixture 1, Liquid mixture 2
Fixed: Pressure, kPa = 101
Property: Mole fraction of tribromomethane (Liquid mixture 1); method: Chromatography
Temperature, K	Mole fraction of tribromomethane	uncertainty
298.15	.201	.00402

System: tribromomethane + toluene; phases: Liquid mixture 1, Liquid mixture 2
Fixed: Pressure, kPa = 101
Property: Mole fraction of tribromomethane (Liquid mixture 1); method: Chromatography
Temperature, K	Mole fraction of tribromomethane	uncertainty
298.15	.212	.00424

System: tribromomethane + 1,2-dimethylbenzene; phases: Liquid mixture 1, Liquid mixture 2
Fixed: Pressure, kPa = 101
Property: Mole fraction of tribromomethane (Liquid mixture 1); method: Chromatography
Temperature, K	Mole fraction of tribromomethane	uncertainty
298.15	.24	.0048

System: tribromomethane + 1,3-xylene; phases: Liquid mixture 1, Liquid mixture 2
Fixed: Pressure, kPa = 101
Property: Mole fraction of tribromomethane (Liquid mixture 1); method: Chromatography
Temperature, K	Mole fraction of tribromomethane	uncertainty
298.15	.165	.0033

System: tribromomethane + ethyl ethanoate; phases: Liquid mixture 1, Liquid mixture 2
Fixed: Pressure, kPa = 101
Property: Mole fraction of tribromomethane (Liquid mixture 1); method: Chromatography
Temperature, K	Mole fraction of tribromomethane	uncertainty
298.15	.21	.0042

System: freon 20 + tribromomethane; phases: Liquid mixture 1, Liquid mixture 2
Fixed: Pressure, kPa = 101
Property: Mole fraction of tribromomethane (Liquid mixture 1); method: Chromatography
Temperature, K	Mole fraction of tribromomethane	uncertainty
298.15	.137	.00274

System: tribromomethane + monochlorobenzene; phases: Liquid mixture 1, Liquid mixture 2
Fixed: Pressure, kPa = 101
Property: Mole fraction of tribromomethane (Liquid mixture 1); method: Chromatography
Temperature, K	Mole fraction of tribromomethane	uncertainty
298.15	.214	.00428

System: n-butyl alcohol + tribromomethane; phases: Liquid mixture 1, Liquid mixture 2
Fixed: Pressure, kPa = 101
Property: Mole fraction of tribromomethane (Liquid mixture 1); method: Chromatography
Temperature, K	Mole fraction of tribromomethane	uncertainty
298.15	.119	.00238

System: tribromomethane + 2-methyl-1-propanol; phases: Liquid mixture 1, Liquid mixture 2
Fixed: Pressure, kPa = 101
Property: Mole fraction of tribromomethane (Liquid mixture 1); method: Chromatography
Temperature, K	Mole fraction of tribromomethane	uncertainty
298.15	.218	.00436

System: acetone + tribromomethane; phases: Liquid mixture 1, Liquid mixture 2
Fixed: Pressure, kPa = 101
Property: Mole fraction of tribromomethane (Liquid mixture 1); method: Chromatography
Temperature, K	Mole fraction of tribromomethane	uncertainty
298.15	.201	.00402

System: tribromomethane + nitrobenzene; phases: Liquid mixture 1, Liquid mixture 2
Fixed: Pressure, kPa = 101
Property: Mole fraction of tribromomethane (Liquid mixture 1); method: Chromatography
Temperature, K	Mole fraction of tribromomethane	uncertainty
298.15	.217	.00434

System: propane, 1-bromo- + n-octane; phases: Liquid mixture 1, Liquid mixture 2
Fixed: Pressure, kPa = 101
Property: Mole fraction of propane, 1-bromo- (Liquid mixture 1); method: Chromatography
Temperature, K	Mole fraction of propane, 1-bromo-	uncertainty
298.15	.263	.00526

System: propane, 1-bromo- + heptane; phases: Liquid mixture 1, Liquid mixture 2
Fixed: Pressure, kPa = 101
Property: Mole fraction of propane, 1-bromo- (Liquid mixture 1); method: Chromatography
Temperature, K	Mole fraction of propane, 1-bromo-	uncertainty
298.15	.225	.0045

System: propane, 1-bromo- + cyclohexane; phases: Liquid mixture 1, Liquid mixture 2
Fixed: Pressure, kPa = 101
Property: Mole fraction of propane, 1-bromo- (Liquid mixture 1); method: Chromatography
Temperature, K	Mole fraction of propane, 1-bromo-	uncertainty
298.15	.216	.00432

System: propane, 1-bromo- + n-hexane; phases: Liquid mixture 1, Liquid mixture 2
Fixed: Pressure, kPa = 101
Property: Mole fraction of propane, 1-bromo- (Liquid mixture 1); method: Chromatography
Temperature, K	Mole fraction of propane, 1-bromo-	uncertainty
298.15	.214	.00428

System: carbon tetrachloride + propane, 1-bromo-; phases: Liquid mixture 1, Liquid mixture 2
Fixed: Pressure, kPa = 101
Property: Mole fraction of propane, 1-bromo- (Liquid mixture 1); method: Chromatography
Temperature, K	Mole fraction of propane, 1-bromo-	uncertainty
298.15	.24	.0048

System: benzene + propane, 1-bromo-; phases: Liquid mixture 1, Liquid mixture 2
Fixed: Pressure, kPa = 101
Property: Mole fraction of propane, 1-bromo- (Liquid mixture 1); method: Chromatography
Temperature, K	Mole fraction of propane, 1-bromo-	uncertainty
298.15	.317	.00634

System: propane, 1-bromo- + 1,4-dioxane; phases: Liquid mixture 1, Liquid mixture 2
Fixed: Pressure, kPa = 101
Property: Mole fraction of propane, 1-bromo- (Liquid mixture 1); method: Chromatography
Temperature, K	Mole fraction of propane, 1-bromo-	uncertainty
298.15	.202	.00404

System: propane, 1-bromo- + toluene; phases: Liquid mixture 1, Liquid mixture 2
Fixed: Pressure, kPa = 101
Property: Mole fraction of propane, 1-bromo- (Liquid mixture 1); method: Chromatography
Temperature, K	Mole fraction of propane, 1-bromo-	uncertainty
298.15	.159	.00318

System: 1,2-dimethylbenzene + propane, 1-bromo-; phases: Liquid mixture 1, Liquid mixture 2
Fixed: Pressure, kPa = 101
Property: Mole fraction of propane, 1-bromo- (Liquid mixture 1); method: Chromatography
Temperature, K	Mole fraction of propane, 1-bromo-	uncertainty
298.15	.152	.00304

System: propane, 1-bromo- + 1,3-xylene; phases: Liquid mixture 1, Liquid mixture 2
Fixed: Pressure, kPa = 101
Property: Mole fraction of propane, 1-bromo- (Liquid mixture 1); method: Chromatography
Temperature, K	Mole fraction of propane, 1-bromo-	uncertainty
298.15	.162	.00324

System: propane, 1-bromo- + ethyl ethanoate; phases: Liquid mixture 1, Liquid mixture 2
Fixed: Pressure, kPa = 101
Property: Mole fraction of propane, 1-bromo- (Liquid mixture 1); method: Chromatography
Temperature, K	Mole fraction of propane, 1-bromo-	uncertainty
298.15	.159	.00318

System: propane, 1-bromo- + monochlorobenzene; phases: Liquid mixture 1, Liquid mixture 2
Fixed: Pressure, kPa = 101
Property: Mole fraction of propane, 1-bromo- (Liquid mixture 1); method: Chromatography
Temperature, K	Mole fraction of propane, 1-bromo-	uncertainty
298.15	.169	.00338

System: n-butyl alcohol + propane, 1-bromo-; phases: Liquid mixture 1, Liquid mixture 2
Fixed: Pressure, kPa = 101
Property: Mole fraction of propane, 1-bromo- (Liquid mixture 1); method: Chromatography
Temperature, K	Mole fraction of propane, 1-bromo-	uncertainty
298.15	.142	.00284

System: 2-methyl-1-propanol + propane, 1-bromo-; phases: Liquid mixture 1, Liquid mixture 2
Fixed: Pressure, kPa = 101
Property: Mole fraction of propane, 1-bromo- (Liquid mixture 1); method: Chromatography
Temperature, K	Mole fraction of propane, 1-bromo-	uncertainty
298.15	.204	.00408

System: acetone + propane, 1-bromo-; phases: Liquid mixture 1, Liquid mixture 2
Fixed: Pressure, kPa = 101
Property: Mole fraction of propane, 1-bromo- (Liquid mixture 1); method: Chromatography
Temperature, K	Mole fraction of propane, 1-bromo-	uncertainty
298.15	.166	.00332

System: nitrobenzene + propane, 1-bromo-; phases: Liquid mixture 1, Liquid mixture 2
Fixed: Pressure, kPa = 101
Property: Mole fraction of propane, 1-bromo- (Liquid mixture 1); method: Chromatography
Temperature, K	Mole fraction of propane, 1-bromo-	uncertainty
298.15	.203	.00406

System: propane, 2-bromo- + n-octane; phases: Liquid mixture 1, Liquid mixture 2
Fixed: Pressure, kPa = 101
Property: Mole fraction of propane, 2-bromo- (Liquid mixture 1); method: Chromatography
Temperature, K	Mole fraction of propane, 2-bromo-	uncertainty
298.15	.187	.00374

System: propane, 2-bromo- + heptane; phases: Liquid mixture 1, Liquid mixture 2
Fixed: Pressure, kPa = 101
Property: Mole fraction of propane, 2-bromo- (Liquid mixture 1); method: Chromatography
Temperature, K	Mole fraction of propane, 2-bromo-	uncertainty
298.15	.152	.00304

System: propane, 2-bromo- + cyclohexane; phases: Liquid mixture 1, Liquid mixture 2
Fixed: Pressure, kPa = 101
Property: Mole fraction of propane, 2-bromo- (Liquid mixture 1); method: Chromatography
Temperature, K	Mole fraction of propane, 2-bromo-	uncertainty
298.15	.202	.00404

System: propane, 2-bromo- + n-hexane; phases: Liquid mixture 1, Liquid mixture 2
Fixed: Pressure, kPa = 101
Property: Mole fraction of propane, 2-bromo- (Liquid mixture 1); method: Chromatography
Temperature, K	Mole fraction of propane, 2-bromo-	uncertainty
298.15	.227	.00454

System: benzene + propane, 2-bromo-; phases: Liquid mixture 1, Liquid mixture 2
Fixed: Pressure, kPa = 101
Property: Mole fraction of propane, 2-bromo- (Liquid mixture 1); method: Chromatography
Temperature, K	Mole fraction of propane, 2-bromo-	uncertainty
298.15	.228	.00456

System: propane, 2-bromo- + 1,4-dioxane; phases: Liquid mixture 1, Liquid mixture 2
Fixed: Pressure, kPa = 101
Property: Mole fraction of propane, 2-bromo- (Liquid mixture 1); method: Chromatography
Temperature, K	Mole fraction of propane, 2-bromo-	uncertainty
298.15	.118	.00236

System: propane, 2-bromo- + toluene; phases: Liquid mixture 1, Liquid mixture 2
Fixed: Pressure, kPa = 101
Property: Mole fraction of propane, 2-bromo- (Liquid mixture 1); method: Chromatography
Temperature, K	Mole fraction of propane, 2-bromo-	uncertainty
298.15	.24	.0048

System: propane, 2-bromo- + 1,2-dimethylbenzene; phases: Liquid mixture 1, Liquid mixture 2
Fixed: Pressure, kPa = 101
Property: Mole fraction of propane, 2-bromo- (Liquid mixture 1); method: Chromatography
Temperature, K	Mole fraction of propane, 2-bromo-	uncertainty
298.15	.205	.0041

System: propane, 2-bromo- + 1,3-xylene; phases: Liquid mixture 1, Liquid mixture 2
Fixed: Pressure, kPa = 101
Property: Mole fraction of propane, 2-bromo- (Liquid mixture 1); method: Chromatography
Temperature, K	Mole fraction of propane, 2-bromo-	uncertainty
298.15	.143	.00286

System: freon 20 + propane, 2-bromo-; phases: Liquid mixture 1, Liquid mixture 2
Fixed: Pressure, kPa = 101
Property: Mole fraction of propane, 2-bromo- (Liquid mixture 1); method: Chromatography
Temperature, K	Mole fraction of propane, 2-bromo-	uncertainty
298.15	.161	.00322

System: propane, 2-bromo- + monochlorobenzene; phases: Liquid mixture 1, Liquid mixture 2
Fixed: Pressure, kPa = 101
Property: Mole fraction of propane, 2-bromo- (Liquid mixture 1); method: Chromatography
Temperature, K	Mole fraction of propane, 2-bromo-	uncertainty
298.15	.24	.0048

System: n-butyl alcohol + propane, 2-bromo-; phases: Liquid mixture 1, Liquid mixture 2
Fixed: Pressure, kPa = 101
Property: Mole fraction of propane, 2-bromo- (Liquid mixture 1); method: Chromatography
Temperature, K	Mole fraction of propane, 2-bromo-	uncertainty
298.15	.147	.00294

System: propane, 2-bromo- + 2-methyl-1-propanol; phases: Liquid mixture 1, Liquid mixture 2
Fixed: Pressure, kPa = 101
Property: Mole fraction of propane, 2-bromo- (Liquid mixture 1); method: Chromatography
Temperature, K	Mole fraction of propane, 2-bromo-	uncertainty
298.15	.121	.00242

System: acetone + propane, 2-bromo-; phases: Liquid mixture 1, Liquid mixture 2
Fixed: Pressure, kPa = 101
Property: Mole fraction of propane, 2-bromo- (Liquid mixture 1); method: Chromatography
Temperature, K	Mole fraction of propane, 2-bromo-	uncertainty
298.15	.167	.00334

System: propane, 2-bromo- + nitrobenzene; phases: Liquid mixture 1, Liquid mixture 2
Fixed: Pressure, kPa = 101
Property: Mole fraction of propane, 2-bromo- (Liquid mixture 1); method: Chromatography
Temperature, K	Mole fraction of propane, 2-bromo-	uncertainty
298.15	.17	.0034

System: n-butyl bromide + n-octane; phases: Liquid mixture 1, Liquid mixture 2
Fixed: Pressure, kPa = 101
Property: Mole fraction of n-butyl bromide (Liquid mixture 1); method: Chromatography
Temperature, K	Mole fraction of n-butyl bromide	uncertainty
298.15	.237	.00474

System: n-butyl bromide + heptane; phases: Liquid mixture 1, Liquid mixture 2
Fixed: Pressure, kPa = 101
Property: Mole fraction of n-butyl bromide (Liquid mixture 1); method: Chromatography
Temperature, K	Mole fraction of n-butyl bromide	uncertainty
298.15	.215	.0043

System: n-butyl bromide + cyclohexane; phases: Liquid mixture 1, Liquid mixture 2
Fixed: Pressure, kPa = 101
Property: Mole fraction of n-butyl bromide (Liquid mixture 1); method: Chromatography
Temperature, K	Mole fraction of n-butyl bromide	uncertainty
298.15	.185	.0037

System: n-butyl bromide + n-hexane; phases: Liquid mixture 1, Liquid mixture 2
Fixed: Pressure, kPa = 101
Property: Mole fraction of n-butyl bromide (Liquid mixture 1); method: Chromatography
Temperature, K	Mole fraction of n-butyl bromide	uncertainty
298.15	.312	.00624

System: carbon tetrachloride + n-butyl bromide; phases: Liquid mixture 1, Liquid mixture 2
Fixed: Pressure, kPa = 101
Property: Mole fraction of n-butyl bromide (Liquid mixture 1); method: Chromatography
Temperature, K	Mole fraction of n-butyl bromide	uncertainty
298.15	.444	.00888

System: benzene + n-butyl bromide; phases: Liquid mixture 1, Liquid mixture 2
Fixed: Pressure, kPa = 101
Property: Mole fraction of n-butyl bromide (Liquid mixture 1); method: Chromatography
Temperature, K	Mole fraction of n-butyl bromide	uncertainty
298.15	.317	.00634

System: n-butyl bromide + 1,4-dioxane; phases: Liquid mixture 1, Liquid mixture 2
Fixed: Pressure, kPa = 101
Property: Mole fraction of n-butyl bromide (Liquid mixture 1); method: Chromatography
Temperature, K	Mole fraction of n-butyl bromide	uncertainty
298.15	.187	.00374

System: toluene + n-butyl bromide; phases: Liquid mixture 1, Liquid mixture 2
Fixed: Pressure, kPa = 101
Property: Mole fraction of n-butyl bromide (Liquid mixture 1); method: Chromatography
Temperature, K	Mole fraction of n-butyl bromide	uncertainty
298.15	.201	.00402

System: 1,2-dimethylbenzene + n-butyl bromide; phases: Liquid mixture 1, Liquid mixture 2
Fixed: Pressure, kPa = 101
Property: Mole fraction of n-butyl bromide (Liquid mixture 1); method: Chromatography
Temperature, K	Mole fraction of n-butyl bromide	uncertainty
298.15	.213	.00426

System: 1,3-xylene + n-butyl bromide; phases: Liquid mixture 1, Liquid mixture 2
Fixed: Pressure, kPa = 101
Property: Mole fraction of n-butyl bromide (Liquid mixture 1); method: Chromatography
Temperature, K	Mole fraction of n-butyl bromide	uncertainty
298.15	.115	.0023

System: n-butyl bromide + ethyl ethanoate; phases: Liquid mixture 1, Liquid mixture 2
Fixed: Pressure, kPa = 101
Property: Mole fraction of n-butyl bromide (Liquid mixture 1); method: Chromatography
Temperature, K	Mole fraction of n-butyl bromide	uncertainty
298.15	.201	.00402

System: freon 20 + n-butyl bromide; phases: Liquid mixture 1, Liquid mixture 2
Fixed: Pressure, kPa = 101
Property: Mole fraction of n-butyl bromide (Liquid mixture 1); method: Chromatography
Temperature, K	Mole fraction of n-butyl bromide	uncertainty
298.15	.229	.00458

System: monochlorobenzene + n-butyl bromide; phases: Liquid mixture 1, Liquid mixture 2
Fixed: Pressure, kPa = 101
Property: Mole fraction of n-butyl bromide (Liquid mixture 1); method: Chromatography
Temperature, K	Mole fraction of n-butyl bromide	uncertainty
298.15	.183	.00366

System: n-butyl alcohol + n-butyl bromide; phases: Liquid mixture 1, Liquid mixture 2
Fixed: Pressure, kPa = 101
Property: Mole fraction of n-butyl bromide (Liquid mixture 1); method: Chromatography
Temperature, K	Mole fraction of n-butyl bromide	uncertainty
298.15	.121	.00242

System: 2-methyl-1-propanol + n-butyl bromide; phases: Liquid mixture 1, Liquid mixture 2
Fixed: Pressure, kPa = 101
Property: Mole fraction of n-butyl bromide (Liquid mixture 1); method: Chromatography
Temperature, K	Mole fraction of n-butyl bromide	uncertainty
298.15	.215	.0043

System: acetone + n-butyl bromide; phases: Liquid mixture 1, Liquid mixture 2
Fixed: Pressure, kPa = 101
Property: Mole fraction of n-butyl bromide (Liquid mixture 1); method: Chromatography
Temperature, K	Mole fraction of n-butyl bromide	uncertainty
298.15	.147	.00294

System: nitrobenzene + n-butyl bromide; phases: Liquid mixture 1, Liquid mixture 2
Fixed: Pressure, kPa = 101
Property: Mole fraction of n-butyl bromide (Liquid mixture 1); method: Chromatography
Temperature, K	Mole fraction of n-butyl bromide	uncertainty
298.15	.2	.004

System: isobutyl bromide + n-octane; phases: Liquid mixture 1, Liquid mixture 2
Fixed: Pressure, kPa = 101
Property: Mole fraction of isobutyl bromide (Liquid mixture 1); method: Chromatography
Temperature, K	Mole fraction of isobutyl bromide	uncertainty
298.15	.31	.0062

System: isobutyl bromide + heptane; phases: Liquid mixture 1, Liquid mixture 2
Fixed: Pressure, kPa = 101
Property: Mole fraction of isobutyl bromide (Liquid mixture 1); method: Chromatography
Temperature, K	Mole fraction of isobutyl bromide	uncertainty
298.15	.237	.00474

System: isobutyl bromide + cyclohexane; phases: Liquid mixture 1, Liquid mixture 2
Fixed: Pressure, kPa = 101
Property: Mole fraction of isobutyl bromide (Liquid mixture 1); method: Chromatography
Temperature, K	Mole fraction of isobutyl bromide	uncertainty
298.15	.198	.00396

System: isobutyl bromide + n-hexane; phases: Liquid mixture 1, Liquid mixture 2
Fixed: Pressure, kPa = 101
Property: Mole fraction of isobutyl bromide (Liquid mixture 1); method: Chromatography
Temperature, K	Mole fraction of isobutyl bromide	uncertainty
298.15	.33	.0066

System: carbon tetrachloride + isobutyl bromide; phases: Liquid mixture 1, Liquid mixture 2
Fixed: Pressure, kPa = 101
Property: Mole fraction of isobutyl bromide (Liquid mixture 1); method: Chromatography
Temperature, K	Mole fraction of isobutyl bromide	uncertainty
298.15	.466	.00932

System: benzene + isobutyl bromide; phases: Liquid mixture 1, Liquid mixture 2
Fixed: Pressure, kPa = 101
Property: Mole fraction of isobutyl bromide (Liquid mixture 1); method: Chromatography
Temperature, K	Mole fraction of isobutyl bromide	uncertainty
298.15	.308	.00616

System: isobutyl bromide + 1,4-dioxane; phases: Liquid mixture 1, Liquid mixture 2
Fixed: Pressure, kPa = 101
Property: Mole fraction of isobutyl bromide (Liquid mixture 1); method: Chromatography
Temperature, K	Mole fraction of isobutyl bromide	uncertainty
298.15	.208	.00416

System: isobutyl bromide + toluene; phases: Liquid mixture 1, Liquid mixture 2
Fixed: Pressure, kPa = 101
Property: Mole fraction of isobutyl bromide (Liquid mixture 1); method: Chromatography
Temperature, K	Mole fraction of isobutyl bromide	uncertainty
298.15	.229	.00458

System: isobutyl bromide + 1,2-dimethylbenzene; phases: Liquid mixture 1, Liquid mixture 2
Fixed: Pressure, kPa = 101
Property: Mole fraction of isobutyl bromide (Liquid mixture 1); method: Chromatography
Temperature, K	Mole fraction of isobutyl bromide	uncertainty
298.15	.258	.00516

System: isobutyl bromide + 1,3-xylene; phases: Liquid mixture 1, Liquid mixture 2
Fixed: Pressure, kPa = 101
Property: Mole fraction of isobutyl bromide (Liquid mixture 1); method: Chromatography
Temperature, K	Mole fraction of isobutyl bromide	uncertainty
298.15	.175	.0035

System: isobutyl bromide + ethyl ethanoate; phases: Liquid mixture 1, Liquid mixture 2
Fixed: Pressure, kPa = 101
Property: Mole fraction of isobutyl bromide (Liquid mixture 1); method: Chromatography
Temperature, K	Mole fraction of isobutyl bromide	uncertainty
298.15	.217	.00434

System: freon 20 + isobutyl bromide; phases: Liquid mixture 1, Liquid mixture 2
Fixed: Pressure, kPa = 101
Property: Mole fraction of isobutyl bromide (Liquid mixture 1); method: Chromatography
Temperature, K	Mole fraction of isobutyl bromide	uncertainty
298.15	.15	.003

System: isobutyl bromide + monochlorobenzene; phases: Liquid mixture 1, Liquid mixture 2
Fixed: Pressure, kPa = 101
Property: Mole fraction of isobutyl bromide (Liquid mixture 1); method: Chromatography
Temperature, K	Mole fraction of isobutyl bromide	uncertainty
298.15	.231	.00462

System: n-butyl alcohol + isobutyl bromide; phases: Liquid mixture 1, Liquid mixture 2
Fixed: Pressure, kPa = 101
Property: Mole fraction of isobutyl bromide (Liquid mixture 1); method: Chromatography
Temperature, K	Mole fraction of isobutyl bromide	uncertainty
298.15	.139	.00278

System: isobutyl bromide + 2-methyl-1-propanol; phases: Liquid mixture 1, Liquid mixture 2
Fixed: Pressure, kPa = 101
Property: Mole fraction of isobutyl bromide (Liquid mixture 1); method: Chromatography
Temperature, K	Mole fraction of isobutyl bromide	uncertainty
298.15	.23	.0046

System: acetone + isobutyl bromide; phases: Liquid mixture 1, Liquid mixture 2
Fixed: Pressure, kPa = 101
Property: Mole fraction of isobutyl bromide (Liquid mixture 1); method: Chromatography
Temperature, K	Mole fraction of isobutyl bromide	uncertainty
298.15	.139	.00278

System: isobutyl bromide + nitrobenzene; phases: Liquid mixture 1, Liquid mixture 2
Fixed: Pressure, kPa = 101
Property: Mole fraction of isobutyl bromide (Liquid mixture 1); method: Chromatography
Temperature, K	Mole fraction of isobutyl bromide	uncertainty
298.15	.183	.00366

System: 1-bromopentane + n-octane; phases: Liquid mixture 1, Liquid mixture 2
Fixed: Pressure, kPa = 101
Property: Mole fraction of 1-bromopentane (Liquid mixture 1); method: Chromatography
Temperature, K	Mole fraction of 1-bromopentane	uncertainty
298.15	.209	.00418

System: 1-bromopentane + heptane; phases: Liquid mixture 1, Liquid mixture 2
Fixed: Pressure, kPa = 101
Property: Mole fraction of 1-bromopentane (Liquid mixture 1); method: Chromatography
Temperature, K	Mole fraction of 1-bromopentane	uncertainty
298.15	.189	.00378

System: 1-bromopentane + cyclohexane; phases: Liquid mixture 1, Liquid mixture 2
Fixed: Pressure, kPa = 101
Property: Mole fraction of 1-bromopentane (Liquid mixture 1); method: Chromatography
Temperature, K	Mole fraction of 1-bromopentane	uncertainty
298.15	.149	.00298

System: carbon tetrachloride + 1-bromopentane; phases: Liquid mixture 1, Liquid mixture 2
Fixed: Pressure, kPa = 101
Property: Mole fraction of 1-bromopentane (Liquid mixture 1); method: Chromatography
Temperature, K	Mole fraction of 1-bromopentane	uncertainty
298.15	.541	.01082

System: benzene + 1-bromopentane; phases: Liquid mixture 1, Liquid mixture 2
Fixed: Pressure, kPa = 101
Property: Mole fraction of 1-bromopentane (Liquid mixture 1); method: Chromatography
Temperature, K	Mole fraction of 1-bromopentane	uncertainty
298.15	.258	.00516

System: 1-bromopentane + 1,4-dioxane; phases: Liquid mixture 1, Liquid mixture 2
Fixed: Pressure, kPa = 101
Property: Mole fraction of 1-bromopentane (Liquid mixture 1); method: Chromatography
Temperature, K	Mole fraction of 1-bromopentane	uncertainty
298.15	.307	.00614

System: toluene + 1-bromopentane; phases: Liquid mixture 1, Liquid mixture 2
Fixed: Pressure, kPa = 101
Property: Mole fraction of 1-bromopentane (Liquid mixture 1); method: Chromatography
Temperature, K	Mole fraction of 1-bromopentane	uncertainty
298.15	.205	.0041

System: 1,2-dimethylbenzene + 1-bromopentane; phases: Liquid mixture 1, Liquid mixture 2
Fixed: Pressure, kPa = 101
Property: Mole fraction of 1-bromopentane (Liquid mixture 1); method: Chromatography
Temperature, K	Mole fraction of 1-bromopentane	uncertainty
298.15	.227	.00454

System: 1,3-xylene + 1-bromopentane; phases: Liquid mixture 1, Liquid mixture 2
Fixed: Pressure, kPa = 101
Property: Mole fraction of 1-bromopentane (Liquid mixture 1); method: Chromatography
Temperature, K	Mole fraction of 1-bromopentane	uncertainty
298.15	.206	.00412

System: 1-bromopentane + ethyl ethanoate; phases: Liquid mixture 1, Liquid mixture 2
Fixed: Pressure, kPa = 101
Property: Mole fraction of 1-bromopentane (Liquid mixture 1); method: Chromatography
Temperature, K	Mole fraction of 1-bromopentane	uncertainty
298.15	.205	.0041

System: freon 20 + 1-bromopentane; phases: Liquid mixture 1, Liquid mixture 2
Fixed: Pressure, kPa = 101
Property: Mole fraction of 1-bromopentane (Liquid mixture 1); method: Chromatography
Temperature, K	Mole fraction of 1-bromopentane	uncertainty
298.15	.221	.00442

System: monochlorobenzene + 1-bromopentane; phases: Liquid mixture 1, Liquid mixture 2
Fixed: Pressure, kPa = 101
Property: Mole fraction of 1-bromopentane (Liquid mixture 1); method: Chromatography
Temperature, K	Mole fraction of 1-bromopentane	uncertainty
298.15	.232	.00464

System: n-butyl alcohol + 1-bromopentane; phases: Liquid mixture 1, Liquid mixture 2
Fixed: Pressure, kPa = 101
Property: Mole fraction of 1-bromopentane (Liquid mixture 1); method: Chromatography
Temperature, K	Mole fraction of 1-bromopentane	uncertainty
298.15	.131	.00262

System: 2-methyl-1-propanol + 1-bromopentane; phases: Liquid mixture 1, Liquid mixture 2
Fixed: Pressure, kPa = 101
Property: Mole fraction of 1-bromopentane (Liquid mixture 1); method: Chromatography
Temperature, K	Mole fraction of 1-bromopentane	uncertainty
298.15	.22	.0044

System: acetone + 1-bromopentane; phases: Liquid mixture 1, Liquid mixture 2
Fixed: Pressure, kPa = 101
Property: Mole fraction of 1-bromopentane (Liquid mixture 1); method: Chromatography
Temperature, K	Mole fraction of 1-bromopentane	uncertainty
298.15	.135	.0027

System: nitrobenzene + 1-bromopentane; phases: Liquid mixture 1, Liquid mixture 2
Fixed: Pressure, kPa = 101
Property: Mole fraction of 1-bromopentane (Liquid mixture 1); method: Chromatography
Temperature, K	Mole fraction of 1-bromopentane	uncertainty
298.15	.169	.00338

System: n-octane + 1-bromoheptane; phases: Liquid mixture 1, Liquid mixture 2
Fixed: Pressure, kPa = 101
Property: Mole fraction of 1-bromoheptane (Liquid mixture 1); method: Chromatography
Temperature, K	Mole fraction of 1-bromoheptane	uncertainty
298.15	.171	.00342

System: heptane + 1-bromoheptane; phases: Liquid mixture 1, Liquid mixture 2
Fixed: Pressure, kPa = 101
Property: Mole fraction of 1-bromoheptane (Liquid mixture 1); method: Chromatography
Temperature, K	Mole fraction of 1-bromoheptane	uncertainty
298.15	.148	.00296

System: cyclohexane + 1-bromoheptane; phases: Liquid mixture 1, Liquid mixture 2
Fixed: Pressure, kPa = 101
Property: Mole fraction of 1-bromoheptane (Liquid mixture 1); method: Chromatography
Temperature, K	Mole fraction of 1-bromoheptane	uncertainty
298.15	.129	.00258

System: carbon tetrachloride + 1-bromoheptane; phases: Liquid mixture 1, Liquid mixture 2
Fixed: Pressure, kPa = 101
Property: Mole fraction of 1-bromoheptane (Liquid mixture 1); method: Chromatography
Temperature, K	Mole fraction of 1-bromoheptane	uncertainty
298.15	.372	.00744

System: benzene + 1-bromoheptane; phases: Liquid mixture 1, Liquid mixture 2
Fixed: Pressure, kPa = 101
Property: Mole fraction of 1-bromoheptane (Liquid mixture 1); method: Chromatography
Temperature, K	Mole fraction of 1-bromoheptane	uncertainty
298.15	.209	.00418

System: 1,4-dioxane + 1-bromoheptane; phases: Liquid mixture 1, Liquid mixture 2
Fixed: Pressure, kPa = 101
Property: Mole fraction of 1-bromoheptane (Liquid mixture 1); method: Chromatography
Temperature, K	Mole fraction of 1-bromoheptane	uncertainty
298.15	.314	.00628

System: toluene + 1-bromoheptane; phases: Liquid mixture 1, Liquid mixture 2
Fixed: Pressure, kPa = 101
Property: Mole fraction of 1-bromoheptane (Liquid mixture 1); method: Chromatography
Temperature, K	Mole fraction of 1-bromoheptane	uncertainty
298.15	.199	.00398

System: 1,2-dimethylbenzene + 1-bromoheptane; phases: Liquid mixture 1, Liquid mixture 2
Fixed: Pressure, kPa = 101
Property: Mole fraction of 1-bromoheptane (Liquid mixture 1); method: Chromatography
Temperature, K	Mole fraction of 1-bromoheptane	uncertainty
298.15	.211	.00422

System: 1,3-xylene + 1-bromoheptane; phases: Liquid mixture 1, Liquid mixture 2
Fixed: Pressure, kPa = 101
Property: Mole fraction of 1-bromoheptane (Liquid mixture 1); method: Chromatography
Temperature, K	Mole fraction of 1-bromoheptane	uncertainty
298.15	.21	.0042

System: ethyl ethanoate + 1-bromoheptane; phases: Liquid mixture 1, Liquid mixture 2
Fixed: Pressure, kPa = 101
Property: Mole fraction of 1-bromoheptane (Liquid mixture 1); method: Chromatography
Temperature, K	Mole fraction of 1-bromoheptane	uncertainty
298.15	.183	.00366

System: freon 20 + 1-bromoheptane; phases: Liquid mixture 1, Liquid mixture 2
Fixed: Pressure, kPa = 101
Property: Mole fraction of 1-bromoheptane (Liquid mixture 1); method: Chromatography
Temperature, K	Mole fraction of 1-bromoheptane	uncertainty
298.15	.198	.00396

System: monochlorobenzene + 1-bromoheptane; phases: Liquid mixture 1, Liquid mixture 2
Fixed: Pressure, kPa = 101
Property: Mole fraction of 1-bromoheptane (Liquid mixture 1); method: Chromatography
Temperature, K	Mole fraction of 1-bromoheptane	uncertainty
298.15	.23	.0046

System: n-butyl alcohol + 1-bromoheptane; phases: Liquid mixture 1, Liquid mixture 2
Fixed: Pressure, kPa = 101
Property: Mole fraction of 1-bromoheptane (Liquid mixture 1); method: Chromatography
Temperature, K	Mole fraction of 1-bromoheptane	uncertainty
298.15	.122	.00244

System: 2-methyl-1-propanol + 1-bromoheptane; phases: Liquid mixture 1, Liquid mixture 2
Fixed: Pressure, kPa = 101
Property: Mole fraction of 1-bromoheptane (Liquid mixture 1); method: Chromatography
Temperature, K	Mole fraction of 1-bromoheptane	uncertainty
298.15	.261	.00522

System: acetone + 1-bromoheptane; phases: Liquid mixture 1, Liquid mixture 2
Fixed: Pressure, kPa = 101
Property: Mole fraction of 1-bromoheptane (Liquid mixture 1); method: Chromatography
Temperature, K	Mole fraction of 1-bromoheptane	uncertainty
298.15	.141	.00282

System: nitrobenzene + 1-bromoheptane; phases: Liquid mixture 1, Liquid mixture 2
Fixed: Pressure, kPa = 101
Property: Mole fraction of 1-bromoheptane (Liquid mixture 1); method: Chromatography
Temperature, K	Mole fraction of 1-bromoheptane	uncertainty
298.15	.192	.00384

System: n-octane + n-heptadecyl bromide; phases: Liquid mixture 1, Liquid mixture 2
Fixed: Pressure, kPa = 101
Property: Mole fraction of n-heptadecyl bromide (Liquid mixture 1); method: Chromatography
Temperature, K	Mole fraction of n-heptadecyl bromide	uncertainty
298.15	.095	.0019

System: heptane + n-heptadecyl bromide; phases: Liquid mixture 1, Liquid mixture 2
Fixed: Pressure, kPa = 101
Property: Mole fraction of n-heptadecyl bromide (Liquid mixture 1); method: Chromatography
Temperature, K	Mole fraction of n-heptadecyl bromide	uncertainty
298.15	.134	.00268

System: cyclohexane + n-heptadecyl bromide; phases: Liquid mixture 1, Liquid mixture 2
Fixed: Pressure, kPa = 101
Property: Mole fraction of n-heptadecyl bromide (Liquid mixture 1); method: Chromatography
Temperature, K	Mole fraction of n-heptadecyl bromide	uncertainty
298.15	.064	.00128

System: carbon tetrachloride + n-heptadecyl bromide; phases: Liquid mixture 1, Liquid mixture 2
Fixed: Pressure, kPa = 101
Property: Mole fraction of n-heptadecyl bromide (Liquid mixture 1); method: Chromatography
Temperature, K	Mole fraction of n-heptadecyl bromide	uncertainty
298.15	.338	.00676

System: benzene + n-heptadecyl bromide; phases: Liquid mixture 1, Liquid mixture 2
Fixed: Pressure, kPa = 101
Property: Mole fraction of n-heptadecyl bromide (Liquid mixture 1); method: Chromatography
Temperature, K	Mole fraction of n-heptadecyl bromide	uncertainty
298.15	.136	.00272

System: 1,4-dioxane + n-heptadecyl bromide; phases: Liquid mixture 1, Liquid mixture 2
Fixed: Pressure, kPa = 101
Property: Mole fraction of n-heptadecyl bromide (Liquid mixture 1); method: Chromatography
Temperature, K	Mole fraction of n-heptadecyl bromide	uncertainty
298.15	.15	.003

System: toluene + n-heptadecyl bromide; phases: Liquid mixture 1, Liquid mixture 2
Fixed: Pressure, kPa = 101
Property: Mole fraction of n-heptadecyl bromide (Liquid mixture 1); method: Chromatography
Temperature, K	Mole fraction of n-heptadecyl bromide	uncertainty
298.15	.11	.0022

System: 1,2-dimethylbenzene + n-heptadecyl bromide; phases: Liquid mixture 1, Liquid mixture 2
Fixed: Pressure, kPa = 101
Property: Mole fraction of n-heptadecyl bromide (Liquid mixture 1); method: Chromatography
Temperature, K	Mole fraction of n-heptadecyl bromide	uncertainty
298.15	.198	.00396

System: 1,3-xylene + n-heptadecyl bromide; phases: Liquid mixture 1, Liquid mixture 2
Fixed: Pressure, kPa = 101
Property: Mole fraction of n-heptadecyl bromide (Liquid mixture 1); method: Chromatography
Temperature, K	Mole fraction of n-heptadecyl bromide	uncertainty
298.15	.207	.00414

System: ethyl ethanoate + n-heptadecyl bromide; phases: Liquid mixture 1, Liquid mixture 2
Fixed: Pressure, kPa = 101
Property: Mole fraction of n-heptadecyl bromide (Liquid mixture 1); method: Chromatography
Temperature, K	Mole fraction of n-heptadecyl bromide	uncertainty
298.15	.212	.00424

System: freon 20 + n-heptadecyl bromide; phases: Liquid mixture 1, Liquid mixture 2
Fixed: Pressure, kPa = 101
Property: Mole fraction of n-heptadecyl bromide (Liquid mixture 1); method: Chromatography
Temperature, K	Mole fraction of n-heptadecyl bromide	uncertainty
298.15	.125	.0025

System: monochlorobenzene + n-heptadecyl bromide; phases: Liquid mixture 1, Liquid mixture 2
Fixed: Pressure, kPa = 101
Property: Mole fraction of n-heptadecyl bromide (Liquid mixture 1); method: Chromatography
Temperature, K	Mole fraction of n-heptadecyl bromide	uncertainty
298.15	.192	.00384

System: n-butyl alcohol + n-heptadecyl bromide; phases: Liquid mixture 1, Liquid mixture 2
Fixed: Pressure, kPa = 101
Property: Mole fraction of n-heptadecyl bromide (Liquid mixture 1); method: Chromatography
Temperature, K	Mole fraction of n-heptadecyl bromide	uncertainty
298.15	.059	.00118

System: 2-methyl-1-propanol + n-heptadecyl bromide; phases: Liquid mixture 1, Liquid mixture 2
Fixed: Pressure, kPa = 101
Property: Mole fraction of n-heptadecyl bromide (Liquid mixture 1); method: Chromatography
Temperature, K	Mole fraction of n-heptadecyl bromide	uncertainty
298.15	.038	.00076

System: acetone + n-heptadecyl bromide; phases: Liquid mixture 1, Liquid mixture 2
Fixed: Pressure, kPa = 101
Property: Mole fraction of n-heptadecyl bromide (Liquid mixture 1); method: Chromatography
Temperature, K	Mole fraction of n-heptadecyl bromide	uncertainty
298.15	.072	.00144

System: nitrobenzene + n-heptadecyl bromide; phases: Liquid mixture 1, Liquid mixture 2
Fixed: Pressure, kPa = 101
Property: Mole fraction of n-heptadecyl bromide (Liquid mixture 1); method: Chromatography
Temperature, K	Mole fraction of n-heptadecyl bromide	uncertainty
298.15	.09	.0018

System: iodoethane + n-octane; phases: Liquid mixture 1, Liquid mixture 2
Fixed: Pressure, kPa = 101
Property: Mole fraction of iodoethane (Liquid mixture 1); method: Chromatography
Temperature, K	Mole fraction of iodoethane	uncertainty
298.15	.216	.00432

System: iodoethane + heptane; phases: Liquid mixture 1, Liquid mixture 2
Fixed: Pressure, kPa = 101
Property: Mole fraction of iodoethane (Liquid mixture 1); method: Chromatography
Temperature, K	Mole fraction of iodoethane	uncertainty
298.15	.281	.00562

System: iodoethane + cyclohexane; phases: Liquid mixture 1, Liquid mixture 2
Fixed: Pressure, kPa = 101
Property: Mole fraction of iodoethane (Liquid mixture 1); method: Chromatography
Temperature, K	Mole fraction of iodoethane	uncertainty
298.15	.225	.0045

System: iodoethane + n-hexane; phases: Liquid mixture 1, Liquid mixture 2
Fixed: Pressure, kPa = 101
Property: Mole fraction of iodoethane (Liquid mixture 1); method: Chromatography
Temperature, K	Mole fraction of iodoethane	uncertainty
298.15	.237	.00474

System: carbon tetrachloride + iodoethane; phases: Liquid mixture 1, Liquid mixture 2
Fixed: Pressure, kPa = 101
Property: Mole fraction of iodoethane (Liquid mixture 1); method: Chromatography
Temperature, K	Mole fraction of iodoethane	uncertainty
298.15	.379	.00758

System: benzene + iodoethane; phases: Liquid mixture 1, Liquid mixture 2
Fixed: Pressure, kPa = 101
Property: Mole fraction of iodoethane (Liquid mixture 1); method: Chromatography
Temperature, K	Mole fraction of iodoethane	uncertainty
298.15	.255	.0051

System: iodoethane + 1,4-dioxane; phases: Liquid mixture 1, Liquid mixture 2
Fixed: Pressure, kPa = 101
Property: Mole fraction of iodoethane (Liquid mixture 1); method: Chromatography
Temperature, K	Mole fraction of iodoethane	uncertainty
298.15	.251	.00502

System: iodoethane + toluene; phases: Liquid mixture 1, Liquid mixture 2
Fixed: Pressure, kPa = 101
Property: Mole fraction of iodoethane (Liquid mixture 1); method: Chromatography
Temperature, K	Mole fraction of iodoethane	uncertainty
298.15	.293	.00586

System: iodoethane + 1,2-dimethylbenzene; phases: Liquid mixture 1, Liquid mixture 2
Fixed: Pressure, kPa = 101
Property: Mole fraction of iodoethane (Liquid mixture 1); method: Chromatography
Temperature, K	Mole fraction of iodoethane	uncertainty
298.15	.259	.00518

System: iodoethane + 1,3-xylene; phases: Liquid mixture 1, Liquid mixture 2
Fixed: Pressure, kPa = 101
Property: Mole fraction of iodoethane (Liquid mixture 1); method: Chromatography
Temperature, K	Mole fraction of iodoethane	uncertainty
298.15	.272	.00544

System: iodoethane + ethyl ethanoate; phases: Liquid mixture 1, Liquid mixture 2
Fixed: Pressure, kPa = 101
Property: Mole fraction of iodoethane (Liquid mixture 1); method: Chromatography
Temperature, K	Mole fraction of iodoethane	uncertainty
298.15	.234	.00468

System: freon 20 + iodoethane; phases: Liquid mixture 1, Liquid mixture 2
Fixed: Pressure, kPa = 101
Property: Mole fraction of iodoethane (Liquid mixture 1); method: Chromatography
Temperature, K	Mole fraction of iodoethane	uncertainty
298.15	.26	.0052

System: iodoethane + monochlorobenzene; phases: Liquid mixture 1, Liquid mixture 2
Fixed: Pressure, kPa = 101
Property: Mole fraction of iodoethane (Liquid mixture 1); method: Chromatography
Temperature, K	Mole fraction of iodoethane	uncertainty
298.15	.208	.00416

System: n-butyl alcohol + iodoethane; phases: Liquid mixture 1, Liquid mixture 2
Fixed: Pressure, kPa = 101
Property: Mole fraction of iodoethane (Liquid mixture 1); method: Chromatography
Temperature, K	Mole fraction of iodoethane	uncertainty
298.15	.135	.0027

System: iodoethane + 2-methyl-1-propanol; phases: Liquid mixture 1, Liquid mixture 2
Fixed: Pressure, kPa = 101
Property: Mole fraction of iodoethane (Liquid mixture 1); method: Chromatography
Temperature, K	Mole fraction of iodoethane	uncertainty
298.15	.196	.00392

System: acetone + iodoethane; phases: Liquid mixture 1, Liquid mixture 2
Fixed: Pressure, kPa = 101
Property: Mole fraction of iodoethane (Liquid mixture 1); method: Chromatography
Temperature, K	Mole fraction of iodoethane	uncertainty
298.15	.216	.00432

System: iodoethane + nitrobenzene; phases: Liquid mixture 1, Liquid mixture 2
Fixed: Pressure, kPa = 101
Property: Mole fraction of iodoethane (Liquid mixture 1); method: Chromatography
Temperature, K	Mole fraction of iodoethane	uncertainty
298.15	.246	.00492

System: ethanol + iodoethane; phases: Liquid mixture 1, Liquid mixture 2
Fixed: Pressure, kPa = 101
Property: Mole fraction of iodoethane (Liquid mixture 1); method: Chromatography
Temperature, K	Mole fraction of iodoethane	uncertainty
298.15	.133	.00266

System: 1-iodopropane + n-octane; phases: Liquid mixture 1, Liquid mixture 2
Fixed: Pressure, kPa = 101
Property: Mole fraction of 1-iodopropane (Liquid mixture 1); method: Chromatography
Temperature, K	Mole fraction of 1-iodopropane	uncertainty
298.15	.293	.00586

System: 1-iodopropane + heptane; phases: Liquid mixture 1, Liquid mixture 2
Fixed: Pressure, kPa = 101
Property: Mole fraction of 1-iodopropane (Liquid mixture 1); method: Chromatography
Temperature, K	Mole fraction of 1-iodopropane	uncertainty
298.15	.202	.00404

System: 1-iodopropane + cyclohexane; phases: Liquid mixture 1, Liquid mixture 2
Fixed: Pressure, kPa = 101
Property: Mole fraction of 1-iodopropane (Liquid mixture 1); method: Chromatography
Temperature, K	Mole fraction of 1-iodopropane	uncertainty
298.15	.291	.00582

System: 1-iodopropane + n-hexane; phases: Liquid mixture 1, Liquid mixture 2
Fixed: Pressure, kPa = 101
Property: Mole fraction of 1-iodopropane (Liquid mixture 1); method: Chromatography
Temperature, K	Mole fraction of 1-iodopropane	uncertainty
298.15	.371	.00742

System: carbon tetrachloride + 1-iodopropane; phases: Liquid mixture 1, Liquid mixture 2
Fixed: Pressure, kPa = 101
Property: Mole fraction of 1-iodopropane (Liquid mixture 1); method: Chromatography
Temperature, K	Mole fraction of 1-iodopropane	uncertainty
298.15	.218	.00436

System: benzene + 1-iodopropane; phases: Liquid mixture 1, Liquid mixture 2
Fixed: Pressure, kPa = 101
Property: Mole fraction of 1-iodopropane (Liquid mixture 1); method: Chromatography
Temperature, K	Mole fraction of 1-iodopropane	uncertainty
298.15	.212	.00424

System: 1-iodopropane + 1,4-dioxane; phases: Liquid mixture 1, Liquid mixture 2
Fixed: Pressure, kPa = 101
Property: Mole fraction of 1-iodopropane (Liquid mixture 1); method: Chromatography
Temperature, K	Mole fraction of 1-iodopropane	uncertainty
298.15	.192	.00384

System: 1-iodopropane + toluene; phases: Liquid mixture 1, Liquid mixture 2
Fixed: Pressure, kPa = 101
Property: Mole fraction of 1-iodopropane (Liquid mixture 1); method: Chromatography
Temperature, K	Mole fraction of 1-iodopropane	uncertainty
298.15	.129	.00258

System: 1,2-dimethylbenzene + 1-iodopropane; phases: Liquid mixture 1, Liquid mixture 2
Fixed: Pressure, kPa = 101
Property: Mole fraction of 1-iodopropane (Liquid mixture 1); method: Chromatography
Temperature, K	Mole fraction of 1-iodopropane	uncertainty
298.15	.11	.0022

System: 1-iodopropane + 1,3-xylene; phases: Liquid mixture 1, Liquid mixture 2
Fixed: Pressure, kPa = 101
Property: Mole fraction of 1-iodopropane (Liquid mixture 1); method: Chromatography
Temperature, K	Mole fraction of 1-iodopropane	uncertainty
298.15	.134	.00268

System: 1-iodopropane + ethyl ethanoate; phases: Liquid mixture 1, Liquid mixture 2
Fixed: Pressure, kPa = 101
Property: Mole fraction of 1-iodopropane (Liquid mixture 1); method: Chromatography
Temperature, K	Mole fraction of 1-iodopropane	uncertainty
298.15	.135	.0027

System: freon 20 + 1-iodopropane; phases: Liquid mixture 1, Liquid mixture 2
Fixed: Pressure, kPa = 101
Property: Mole fraction of 1-iodopropane (Liquid mixture 1); method: Chromatography
Temperature, K	Mole fraction of 1-iodopropane	uncertainty
298.15	.127	.00254

System: 1-iodopropane + monochlorobenzene; phases: Liquid mixture 1, Liquid mixture 2
Fixed: Pressure, kPa = 101
Property: Mole fraction of 1-iodopropane (Liquid mixture 1); method: Chromatography
Temperature, K	Mole fraction of 1-iodopropane	uncertainty
298.15	.136	.00272

System: ethanol + 1-iodopropane; phases: Liquid mixture 1, Liquid mixture 2
Fixed: Pressure, kPa = 101
Property: Mole fraction of 1-iodopropane (Liquid mixture 1); method: Chromatography
Temperature, K	Mole fraction of 1-iodopropane	uncertainty
298.15	.105	.0021

System: n-butyl alcohol + 1-iodopropane; phases: Liquid mixture 1, Liquid mixture 2
Fixed: Pressure, kPa = 101
Property: Mole fraction of 1-iodopropane (Liquid mixture 1); method: Chromatography
Temperature, K	Mole fraction of 1-iodopropane	uncertainty
298.15	.13	.0026

System: 2-methyl-1-propanol + 1-iodopropane; phases: Liquid mixture 1, Liquid mixture 2
Fixed: Pressure, kPa = 101
Property: Mole fraction of 1-iodopropane (Liquid mixture 1); method: Chromatography
Temperature, K	Mole fraction of 1-iodopropane	uncertainty
298.15	.122	.00244

System: acetone + 1-iodopropane; phases: Liquid mixture 1, Liquid mixture 2
Fixed: Pressure, kPa = 101
Property: Mole fraction of 1-iodopropane (Liquid mixture 1); method: Chromatography
Temperature, K	Mole fraction of 1-iodopropane	uncertainty
298.15	.146	.00292

System: nitrobenzene + 1-iodopropane; phases: Liquid mixture 1, Liquid mixture 2
Fixed: Pressure, kPa = 101
Property: Mole fraction of 1-iodopropane (Liquid mixture 1); method: Chromatography
Temperature, K	Mole fraction of 1-iodopropane	uncertainty
298.15	.182	.00364

System: sec-propyl iodide + n-octane; phases: Liquid mixture 1, Liquid mixture 2
Fixed: Pressure, kPa = 101
Property: Mole fraction of sec-propyl iodide (Liquid mixture 1); method: Chromatography
Temperature, K	Mole fraction of sec-propyl iodide	uncertainty
298.15	.165	.0033

System: sec-propyl iodide + heptane; phases: Liquid mixture 1, Liquid mixture 2
Fixed: Pressure, kPa = 101
Property: Mole fraction of sec-propyl iodide (Liquid mixture 1); method: Chromatography
Temperature, K	Mole fraction of sec-propyl iodide	uncertainty
298.15	.112	.00224

System: sec-propyl iodide + cyclohexane; phases: Liquid mixture 1, Liquid mixture 2
Fixed: Pressure, kPa = 101
Property: Mole fraction of sec-propyl iodide (Liquid mixture 1); method: Chromatography
Temperature, K	Mole fraction of sec-propyl iodide	uncertainty
298.15	.109	.00218

System: sec-propyl iodide + n-hexane; phases: Liquid mixture 1, Liquid mixture 2
Fixed: Pressure, kPa = 101
Property: Mole fraction of sec-propyl iodide (Liquid mixture 1); method: Chromatography
Temperature, K	Mole fraction of sec-propyl iodide	uncertainty
298.15	.204	.00408

System: benzene + sec-propyl iodide; phases: Liquid mixture 1, Liquid mixture 2
Fixed: Pressure, kPa = 101
Property: Mole fraction of sec-propyl iodide (Liquid mixture 1); method: Chromatography
Temperature, K	Mole fraction of sec-propyl iodide	uncertainty
298.15	.111	.00222

System: sec-propyl iodide + 1,4-dioxane; phases: Liquid mixture 1, Liquid mixture 2
Fixed: Pressure, kPa = 101
Property: Mole fraction of sec-propyl iodide (Liquid mixture 1); method: Chromatography
Temperature, K	Mole fraction of sec-propyl iodide	uncertainty
298.15	.105	.0021

System: sec-propyl iodide + toluene; phases: Liquid mixture 1, Liquid mixture 2
Fixed: Pressure, kPa = 101
Property: Mole fraction of sec-propyl iodide (Liquid mixture 1); method: Chromatography
Temperature, K	Mole fraction of sec-propyl iodide	uncertainty
298.15	.233	.00466

System: sec-propyl iodide + 1,2-dimethylbenzene; phases: Liquid mixture 1, Liquid mixture 2
Fixed: Pressure, kPa = 101
Property: Mole fraction of sec-propyl iodide (Liquid mixture 1); method: Chromatography
Temperature, K	Mole fraction of sec-propyl iodide	uncertainty
298.15	.194	.00388

System: sec-propyl iodide + 1,3-xylene; phases: Liquid mixture 1, Liquid mixture 2
Fixed: Pressure, kPa = 101
Property: Mole fraction of sec-propyl iodide (Liquid mixture 1); method: Chromatography
Temperature, K	Mole fraction of sec-propyl iodide	uncertainty
298.15	.108	.00216

System: sec-propyl iodide + ethyl ethanoate; phases: Liquid mixture 1, Liquid mixture 2
Fixed: Pressure, kPa = 101
Property: Mole fraction of sec-propyl iodide (Liquid mixture 1); method: Chromatography
Temperature, K	Mole fraction of sec-propyl iodide	uncertainty
298.15	.2	.004

System: freon 20 + sec-propyl iodide; phases: Liquid mixture 1, Liquid mixture 2
Fixed: Pressure, kPa = 101
Property: Mole fraction of sec-propyl iodide (Liquid mixture 1); method: Chromatography
Temperature, K	Mole fraction of sec-propyl iodide	uncertainty
298.15	.124	.00248

System: sec-propyl iodide + monochlorobenzene; phases: Liquid mixture 1, Liquid mixture 2
Fixed: Pressure, kPa = 101
Property: Mole fraction of sec-propyl iodide (Liquid mixture 1); method: Chromatography
Temperature, K	Mole fraction of sec-propyl iodide	uncertainty
298.15	.205	.0041

System: ethanol + sec-propyl iodide; phases: Liquid mixture 1, Liquid mixture 2
Fixed: Pressure, kPa = 101
Property: Mole fraction of sec-propyl iodide (Liquid mixture 1); method: Chromatography
Temperature, K	Mole fraction of sec-propyl iodide	uncertainty
298.15	.188	.00376

System: n-butyl alcohol + sec-propyl iodide; phases: Liquid mixture 1, Liquid mixture 2
Fixed: Pressure, kPa = 101
Property: Mole fraction of sec-propyl iodide (Liquid mixture 1); method: Chromatography
Temperature, K	Mole fraction of sec-propyl iodide	uncertainty
298.15	.104	.00208

System: sec-propyl iodide + 2-methyl-1-propanol; phases: Liquid mixture 1, Liquid mixture 2
Fixed: Pressure, kPa = 101
Property: Mole fraction of sec-propyl iodide (Liquid mixture 1); method: Chromatography
Temperature, K	Mole fraction of sec-propyl iodide	uncertainty
298.15	.99	.0198

System: acetone + sec-propyl iodide; phases: Liquid mixture 1, Liquid mixture 2
Fixed: Pressure, kPa = 101
Property: Mole fraction of sec-propyl iodide (Liquid mixture 1); method: Chromatography
Temperature, K	Mole fraction of sec-propyl iodide	uncertainty
298.15	.211	.00422

System: sec-propyl iodide + nitrobenzene; phases: Liquid mixture 1, Liquid mixture 2
Fixed: Pressure, kPa = 101
Property: Mole fraction of sec-propyl iodide (Liquid mixture 1); method: Chromatography
Temperature, K	Mole fraction of sec-propyl iodide	uncertainty
298.15	.22	.0044

System: n-octane + 1-iodo-2-methylpropane; phases: Liquid mixture 1, Liquid mixture 2
Fixed: Pressure, kPa = 101
Property: Mole fraction of 1-iodo-2-methylpropane (Liquid mixture 1); method: Chromatography
Temperature, K	Mole fraction of 1-iodo-2-methylpropane	uncertainty
298.15	.169	.00338

System: heptane + 1-iodo-2-methylpropane; phases: Liquid mixture 1, Liquid mixture 2
Fixed: Pressure, kPa = 101
Property: Mole fraction of 1-iodo-2-methylpropane (Liquid mixture 1); method: Chromatography
Temperature, K	Mole fraction of 1-iodo-2-methylpropane	uncertainty
298.15	.211	.00422

System: cyclohexane + 1-iodo-2-methylpropane; phases: Liquid mixture 1, Liquid mixture 2
Fixed: Pressure, kPa = 101
Property: Mole fraction of 1-iodo-2-methylpropane (Liquid mixture 1); method: Chromatography
Temperature, K	Mole fraction of 1-iodo-2-methylpropane	uncertainty
298.15	.234	.00468

System: n-hexane + 1-iodo-2-methylpropane; phases: Liquid mixture 1, Liquid mixture 2
Fixed: Pressure, kPa = 101
Property: Mole fraction of 1-iodo-2-methylpropane (Liquid mixture 1); method: Chromatography
Temperature, K	Mole fraction of 1-iodo-2-methylpropane	uncertainty
298.15	.23	.0046

System: carbon tetrachloride + 1-iodo-2-methylpropane; phases: Liquid mixture 1, Liquid mixture 2
Fixed: Pressure, kPa = 101
Property: Mole fraction of 1-iodo-2-methylpropane (Liquid mixture 1); method: Chromatography
Temperature, K	Mole fraction of 1-iodo-2-methylpropane	uncertainty
298.15	.329	.00658

System: benzene + 1-iodo-2-methylpropane; phases: Liquid mixture 1, Liquid mixture 2
Fixed: Pressure, kPa = 101
Property: Mole fraction of 1-iodo-2-methylpropane (Liquid mixture 1); method: Chromatography
Temperature, K	Mole fraction of 1-iodo-2-methylpropane	uncertainty
298.15	.209	.00418

System: 1,4-dioxane + 1-iodo-2-methylpropane; phases: Liquid mixture 1, Liquid mixture 2
Fixed: Pressure, kPa = 101
Property: Mole fraction of 1-iodo-2-methylpropane (Liquid mixture 1); method: Chromatography
Temperature, K	Mole fraction of 1-iodo-2-methylpropane	uncertainty
298.15	.155	.0031

System: toluene + 1-iodo-2-methylpropane; phases: Liquid mixture 1, Liquid mixture 2
Fixed: Pressure, kPa = 101
Property: Mole fraction of 1-iodo-2-methylpropane (Liquid mixture 1); method: Chromatography
Temperature, K	Mole fraction of 1-iodo-2-methylpropane	uncertainty
298.15	.108	.00216

System: 1,2-dimethylbenzene + 1-iodo-2-methylpropane; phases: Liquid mixture 1, Liquid mixture 2
Fixed: Pressure, kPa = 101
Property: Mole fraction of 1-iodo-2-methylpropane (Liquid mixture 1); method: Chromatography
Temperature, K	Mole fraction of 1-iodo-2-methylpropane	uncertainty
298.15	.119	.00238

System: 1,3-xylene + 1-iodo-2-methylpropane; phases: Liquid mixture 1, Liquid mixture 2
Fixed: Pressure, kPa = 101
Property: Mole fraction of 1-iodo-2-methylpropane (Liquid mixture 1); method: Chromatography
Temperature, K	Mole fraction of 1-iodo-2-methylpropane	uncertainty
298.15	.103	.00206

System: ethyl ethanoate + 1-iodo-2-methylpropane; phases: Liquid mixture 1, Liquid mixture 2
Fixed: Pressure, kPa = 101
Property: Mole fraction of 1-iodo-2-methylpropane (Liquid mixture 1); method: Chromatography
Temperature, K	Mole fraction of 1-iodo-2-methylpropane	uncertainty
298.15	.165	.0033

System: freon 20 + 1-iodo-2-methylpropane; phases: Liquid mixture 1, Liquid mixture 2
Fixed: Pressure, kPa = 101
Property: Mole fraction of 1-iodo-2-methylpropane (Liquid mixture 1); method: Chromatography
Temperature, K	Mole fraction of 1-iodo-2-methylpropane	uncertainty
298.15	.156	.00312

System: monochlorobenzene + 1-iodo-2-methylpropane; phases: Liquid mixture 1, Liquid mixture 2
Fixed: Pressure, kPa = 101
Property: Mole fraction of 1-iodo-2-methylpropane (Liquid mixture 1); method: Chromatography
Temperature, K	Mole fraction of 1-iodo-2-methylpropane	uncertainty
298.15	.205	.0041

System: ethanol + 1-iodo-2-methylpropane; phases: Liquid mixture 1, Liquid mixture 2
Fixed: Pressure, kPa = 101
Property: Mole fraction of 1-iodo-2-methylpropane (Liquid mixture 1); method: Chromatography
Temperature, K	Mole fraction of 1-iodo-2-methylpropane	uncertainty
298.15	.115	.0023

System: n-butyl alcohol + 1-iodo-2-methylpropane; phases: Liquid mixture 1, Liquid mixture 2
Fixed: Pressure, kPa = 101
Property: Mole fraction of 1-iodo-2-methylpropane (Liquid mixture 1); method: Chromatography
Temperature, K	Mole fraction of 1-iodo-2-methylpropane	uncertainty
298.15	.108	.00216

System: 2-methyl-1-propanol + 1-iodo-2-methylpropane; phases: Liquid mixture 1, Liquid mixture 2
Fixed: Pressure, kPa = 101
Property: Mole fraction of 1-iodo-2-methylpropane (Liquid mixture 1); method: Chromatography
Temperature, K	Mole fraction of 1-iodo-2-methylpropane	uncertainty
298.15	.103	.00206

System: acetone + 1-iodo-2-methylpropane; phases: Liquid mixture 1, Liquid mixture 2
Fixed: Pressure, kPa = 101
Property: Mole fraction of 1-iodo-2-methylpropane (Liquid mixture 1); method: Chromatography
Temperature, K	Mole fraction of 1-iodo-2-methylpropane	uncertainty
298.15	.109	.00218

System: nitrobenzene + 1-iodo-2-methylpropane; phases: Liquid mixture 1, Liquid mixture 2
Fixed: Pressure, kPa = 101
Property: Mole fraction of 1-iodo-2-methylpropane (Liquid mixture 1); method: Chromatography
Temperature, K	Mole fraction of 1-iodo-2-methylpropane	uncertainty
298.15	.097	.00194
