Measured thermophysical data. Activity Coefficients at Infinite Dilution of Organic Compounds in  1-Butyl-3-methylimidazolium Tetrafluoroborate Using Inverse Gas  Chromatography
Source: J. Chem. Eng. Data, 2009, 10.1021/je800658v
Compound 1: 1-butyl-3-methylimidazolium tetrafluoroborate, C8H15BF4N2
Compound 2: hexane, C6H14
Compound 3: 3-methylpentane, C6H14
Compound 4: heptane, C7H16
Compound 5: 2,2,4-trimethylpentane, C8H18
Compound 6: octane, C8H18
Compound 7: nonane, C9H20
Compound 8: methylcyclopentane, C6H12
Compound 9: cyclohexane, C6H12
Compound 10: methylcyclohexane, C7H14
Compound 11: cycloheptane, C7H14
Compound 12: benzene, C6H6
Compound 13: toluene, C7H8
Compound 14: ethylbenzene, C8H10
Compound 15: 1,3-dimethylbenzene, C8H10
Compound 16: 1,4-dimethylbenzene, C8H10
Compound 17: 1,2-dimethylbenzene, C8H10
Compound 18: 1-hexene, C6H12
Compound 19: 1-hexyne, C6H10
Compound 20: 1-heptyne, C7H12
Compound 21: butanone, C4H8O
Compound 22: 2-pentanone, C5H10O
Compound 23: 3-pentanone, C5H10O
Compound 24: 1,4-dioxane, C4H8O2
Compound 25: methanol, CH4O
Compound 26: ethanol, C2H6O
Compound 27: 1-propanol, C3H8O
Compound 28: 2-propanol, C3H8O
Compound 29: 2-methyl-1-propanol, C4H10O
Compound 30: 1-butanol, C4H10O
Compound 31: 2,2,2-trifluoroethanol, C2H3F3O
Compound 32: diethyl ether, C4H10O
Compound 33: isopropyl ether, C6H14O
Compound 34: chloroform, CHCl3
Compound 35: dichloromethane, CH2Cl2
Compound 36: carbon tetrachloride, CCl4
Compound 37: acetonitrile, C2H3N
Compound 38: nitromethane, CH3NO2
Compound 39: 1-nitropropane, C3H7NO2
Compound 40: triethylamine, C6H15N
Compound 41: pyridine, C5H5N
Compound 42: thiophene, C4H4S
Compound 43: methanal, CH2O
Compound 44: propanal, C3H6O
Compound 45: butanal, C4H8O

System: hexane + 1-butyl-3-methylimidazolium tetrafluoroborate; phases: Liquid, Gas
Fixed: Mole fraction of hexane = 0
Property: Activity coefficient of hexane (Liquid); method: Chromatography
Temperature, K	Activity coefficient of hexane	uncertainty
303.35	132.86	3.9858
312.55	130.45	3.9135
322.55	97.36	2.9208
332.55	74.19	2.2257

System: 3-methylpentane + 1-butyl-3-methylimidazolium tetrafluoroborate; phases: Liquid, Gas
Fixed: Mole fraction of 3-methylpentane = 0
Property: Activity coefficient of 3-methylpentane (Liquid); method: inverse gas chromatography
Temperature, K	Activity coefficient of 3-methylpentane	uncertainty
303.35	126.11	3.7833
312.55	94.3	2.829
322.55	82.92	2.4876
332.55	152.01	4.5603

System: heptane + 1-butyl-3-methylimidazolium tetrafluoroborate; phases: Liquid, Gas
Fixed: Mole fraction of heptane = 0
Property: Activity coefficient of heptane (Liquid); method: inverse gas chromatography
Temperature, K	Activity coefficient of heptane	uncertainty
303.35	259.08	7.7724
312.55	250.01	7.5003
322.55	216.04	6.4812
332.55	142.31	4.2693

System: 2,2,4-trimethylpentane + 1-butyl-3-methylimidazolium tetrafluoroborate; phases: Liquid, Gas
Fixed: Mole fraction of 2,2,4-trimethylpentane = 0
Property: Activity coefficient of 2,2,4-trimethylpentane (Liquid); method: inverse gas chromatography
Temperature, K	Activity coefficient of 2,2,4-trimethylpentane	uncertainty
303.35	321.18	9.6354
312.55	231.46	6.9438
322.55	197.53	5.9259
332.55	271.78	8.1534

System: octane + 1-butyl-3-methylimidazolium tetrafluoroborate; phases: Liquid, Gas
Fixed: Mole fraction of octane = 0
Property: Activity coefficient of octane (Liquid); method: inverse gas chromatography
Temperature, K	Activity coefficient of octane	uncertainty
303.35	424.91	12.7473
312.55	368.37	11.0511
322.55	333.47	10.0041
332.55	297.93	8.9379

System: nonane + 1-butyl-3-methylimidazolium tetrafluoroborate; phases: Liquid, Gas
Fixed: Mole fraction of nonane = 0
Property: Activity coefficient of nonane (Liquid); method: inverse gas chromatography
Temperature, K	Activity coefficient of nonane	uncertainty
303.35	955.62	28.6686
312.55	792.8	23.784
322.55	612.49	18.3747
332.55	463.75	13.9125

System: methylcyclopentane + 1-butyl-3-methylimidazolium tetrafluoroborate; phases: Liquid, Gas
Fixed: Mole fraction of methylcyclopentane = 0
Property: Activity coefficient of methylcyclopentane (Liquid); method: inverse gas chromatography
Temperature, K	Activity coefficient of methylcyclopentane	uncertainty
303.35	62.19	1.8657
312.55	53.5	1.605
322.55	42.76	1.2828
332.55	55.4	1.662

System: cyclohexane + 1-butyl-3-methylimidazolium tetrafluoroborate; phases: Liquid, Gas
Fixed: Mole fraction of cyclohexane = 0
Property: Activity coefficient of cyclohexane (Liquid); method: inverse gas chromatography
Temperature, K	Activity coefficient of cyclohexane	uncertainty
303.35	62.53	1.8759
312.55	48.41	1.4523
322.55	42.66	1.2798
332.55	35.28	1.0584

System: methylcyclohexane + 1-butyl-3-methylimidazolium tetrafluoroborate; phases: Liquid, Gas
Fixed: Mole fraction of methylcyclohexane = 0
Property: Activity coefficient of methylcyclohexane (Liquid); method: inverse gas chromatography
Temperature, K	Activity coefficient of methylcyclohexane	uncertainty
303.35	98.3	2.949
312.55	82.69	2.4807
322.55	64.23	1.9269
332.55	57.1	1.713

System: cycloheptane + 1-butyl-3-methylimidazolium tetrafluoroborate; phases: Liquid, Gas
Fixed: Mole fraction of cycloheptane = 0
Property: Activity coefficient of cycloheptane (Liquid); method: inverse gas chromatography
Temperature, K	Activity coefficient of cycloheptane	uncertainty
303.35	78.71	2.3613
312.55	98.21	2.9463
322.55	131.04	3.9312
332.55	166.53	4.9959

System: benzene + 1-butyl-3-methylimidazolium tetrafluoroborate; phases: Liquid, Gas
Fixed: Mole fraction of benzene = 0
Property: Activity coefficient of benzene (Liquid); method: inverse gas chromatography
Temperature, K	Activity coefficient of benzene	uncertainty
303.35	2.2	.066
312.55	2.17	.0651
322.55	2.25	.0675
332.55	2.16	.0648

System: toluene + 1-butyl-3-methylimidazolium tetrafluoroborate; phases: Liquid, Gas
Fixed: Mole fraction of toluene = 0
Property: Activity coefficient of toluene (Liquid); method: inverse gas chromatography
Temperature, K	Activity coefficient of toluene	uncertainty
303.35	4.37	.1311
312.55	3.96	.1188
322.55	3.97	.1191
332.55	3.84	.1152

System: ethylbenzene + 1-butyl-3-methylimidazolium tetrafluoroborate; phases: Liquid, Gas
Fixed: Mole fraction of ethylbenzene = 0
Property: Activity coefficient of ethylbenzene (Liquid); method: inverse gas chromatography
Temperature, K	Activity coefficient of ethylbenzene	uncertainty
303.35	7.25	.2175
312.55	6.73	.2019
322.55	6.85	.2055
332.55	6.51	.1953

System: 1,3-dimethylbenzene + 1-butyl-3-methylimidazolium tetrafluoroborate; phases: Liquid, Gas
Fixed: Mole fraction of 1,3-dimethylbenzene = 0
Property: Activity coefficient of 1,3-dimethylbenzene (Liquid); method: inverse gas chromatography
Temperature, K	Activity coefficient of 1,3-dimethylbenzene	uncertainty
303.35	7.81	.2343
312.55	7.4	.222
322.55	6.89	.2067
332.55	6.56	.1968

System: 1,4-dimethylbenzene + 1-butyl-3-methylimidazolium tetrafluoroborate; phases: Liquid, Gas
Fixed: Mole fraction of 1,4-dimethylbenzene = 0
Property: Activity coefficient of 1,4-dimethylbenzene (Liquid); method: inverse gas chromatography
Temperature, K	Activity coefficient of 1,4-dimethylbenzene	uncertainty
303.35	7.36	.2208
312.55	6.68	.2004
322.55	6.71	.2013
332.55	6.26	.1878

System: 1,2-dimethylbenzene + 1-butyl-3-methylimidazolium tetrafluoroborate; phases: Liquid, Gas
Fixed: Mole fraction of 1,2-dimethylbenzene = 0
Property: Activity coefficient of 1,2-dimethylbenzene (Liquid); method: inverse gas chromatography
Temperature, K	Activity coefficient of 1,2-dimethylbenzene	uncertainty
303.35	6.53	.1959
312.55	5.55	.1665
322.55	5.83	.1749
332.55	4.77	.1431

System: 1-hexene + 1-butyl-3-methylimidazolium tetrafluoroborate; phases: Liquid, Gas
Fixed: Mole fraction of 1-hexene = 0
Property: Activity coefficient of 1-hexene (Liquid); method: inverse gas chromatography
Temperature, K	Activity coefficient of 1-hexene	uncertainty
303.35	48.02	1.4406
312.55	39.33	1.1799
322.55	36.27	1.0881
332.55	38.84	1.1652

System: 1-hexyne + 1-butyl-3-methylimidazolium tetrafluoroborate; phases: Liquid, Gas
Fixed: Mole fraction of 1-hexyne = 0
Property: Activity coefficient of 1-hexyne (Liquid); method: inverse gas chromatography
Temperature, K	Activity coefficient of 1-hexyne	uncertainty
303.35	8.29	.2487
312.55	7.53	.2259
322.55	7.47	.2241
332.55	6.82	.2046

System: 1-heptyne + 1-butyl-3-methylimidazolium tetrafluoroborate; phases: Liquid, Gas
Fixed: Mole fraction of 1-heptyne = 0
Property: Activity coefficient of 1-heptyne (Liquid); method: inverse gas chromatography
Temperature, K	Activity coefficient of 1-heptyne	uncertainty
303.35	13.22	.3966
312.55	12.54	.3762
322.55	11.94	.3582
332.55	11.74	.3522

System: butanone + 1-butyl-3-methylimidazolium tetrafluoroborate; phases: Liquid, Gas
Fixed: Mole fraction of butanone = 0
Property: Activity coefficient of butanone (Liquid); method: inverse gas chromatography
Temperature, K	Activity coefficient of butanone	uncertainty
303.35	1.5	.045
312.55	1.48	.0444
322.55	1.44	.0432
332.55	1.25	.0375

System: 2-pentanone + 1-butyl-3-methylimidazolium tetrafluoroborate; phases: Liquid, Gas
Fixed: Mole fraction of 2-pentanone = 0
Property: Activity coefficient of 2-pentanone (Liquid); method: inverse gas chromatography
Temperature, K	Activity coefficient of 2-pentanone	uncertainty
303.35	2.6	.078
312.55	2.6	.078
322.55	2.66	.0798
332.55	2.53	.0759

System: 3-pentanone + 1-butyl-3-methylimidazolium tetrafluoroborate; phases: Liquid, Gas
Fixed: Mole fraction of 3-pentanone = 0
Property: Activity coefficient of 3-pentanone (Liquid); method: inverse gas chromatography
Temperature, K	Activity coefficient of 3-pentanone	uncertainty
303.35	2.63	.0789
312.55	2.57	.0771
322.55	2.66	.0798
332.55	2.52	.0756

System: 1,4-dioxane + 1-butyl-3-methylimidazolium tetrafluoroborate; phases: Liquid, Gas
Fixed: Mole fraction of 1,4-dioxane = 0
Property: Activity coefficient of 1,4-dioxane (Liquid); method: inverse gas chromatography
Temperature, K	Activity coefficient of 1,4-dioxane	uncertainty
303.35	1.26	.0378
312.55	1.24	.0372
322.55	1.28	.0384
332.55	1.22	.0366

System: methanol + 1-butyl-3-methylimidazolium tetrafluoroborate; phases: Liquid, Gas
Fixed: Mole fraction of methanol = 0
Property: Activity coefficient of methanol (Liquid); method: inverse gas chromatography
Temperature, K	Activity coefficient of methanol	uncertainty
303.35	1.22	.0366
312.55	1.22	.0366
322.55	1.22	.0366
332.55	1.18	.0354

System: ethanol + 1-butyl-3-methylimidazolium tetrafluoroborate; phases: Liquid, Gas
Fixed: Mole fraction of ethanol = 0
Property: Activity coefficient of ethanol (Liquid); method: inverse gas chromatography
Temperature, K	Activity coefficient of ethanol	uncertainty
303.35	2.15	.0645
312.55	1.91	.0573
322.55	1.7	.051
332.55	1.53	.0459

System: 1-propanol + 1-butyl-3-methylimidazolium tetrafluoroborate; phases: Liquid, Gas
Fixed: Mole fraction of 1-propanol = 0
Property: Activity coefficient of 1-propanol (Liquid); method: inverse gas chromatography
Temperature, K	Activity coefficient of 1-propanol	uncertainty
303.35	3.12	.0936
312.55	2.7	.081
322.55	2.43	.0729
332.55	2.14	.0642

System: 2-propanol + 1-butyl-3-methylimidazolium tetrafluoroborate; phases: Liquid, Gas
Fixed: Mole fraction of 2-propanol = 0
Property: Activity coefficient of 2-propanol (Liquid); method: inverse gas chromatography
Temperature, K	Activity coefficient of 2-propanol	uncertainty
303.35	3.2	.096
312.55	2.76	.0828
322.55	2.5	.075
332.55	2.15	.0645

System: 2-methyl-1-propanol + 1-butyl-3-methylimidazolium tetrafluoroborate; phases: Liquid, Gas
Fixed: Mole fraction of 2-methyl-1-propanol = 0
Property: Activity coefficient of 2-methyl-1-propanol (Liquid); method: inverse gas chromatography
Temperature, K	Activity coefficient of 2-methyl-1-propanol	uncertainty
303.35	4.17	.1251
312.55	3.99	.1197
322.55	3.28	.0984
332.55	2.84	.0852

System: 1-butanol + 1-butyl-3-methylimidazolium tetrafluoroborate; phases: Liquid, Gas
Fixed: Mole fraction of 1-butanol = 0
Property: Activity coefficient of 1-butanol (Liquid); method: inverse gas chromatography
Temperature, K	Activity coefficient of 1-butanol	uncertainty
303.35	4.74	.1422
312.55	3.82	.1146
322.55	3.33	.0999
332.55	2.69	.0807

System: 2,2,2-trifluoroethanol + 1-butyl-3-methylimidazolium tetrafluoroborate; phases: Liquid, Gas
Fixed: Mole fraction of 2,2,2-trifluoroethanol = 0
Property: Activity coefficient of 2,2,2-trifluoroethanol (Liquid); method: inverse gas chromatography
Temperature, K	Activity coefficient of 2,2,2-trifluoroethanol	uncertainty
303.35	.36	.0108
312.55	.33	.0099
322.55	.32	.0096
332.55	.3	.009

System: diethyl ether + 1-butyl-3-methylimidazolium tetrafluoroborate; phases: Liquid, Gas
Fixed: Mole fraction of diethyl ether = 0
Property: Activity coefficient of diethyl ether (Liquid); method: inverse gas chromatography
Temperature, K	Activity coefficient of diethyl ether	uncertainty
303.35	10.15	.3045
312.55	9.39	.2817
322.55	8.18	.2454
332.55	7.42	.2226

System: isopropyl ether + 1-butyl-3-methylimidazolium tetrafluoroborate; phases: Liquid, Gas
Fixed: Mole fraction of isopropyl ether = 0
Property: Activity coefficient of isopropyl ether (Liquid); method: inverse gas chromatography
Temperature, K	Activity coefficient of isopropyl ether	uncertainty
303.35	30.7	.921
312.55	33.47	1.0041
322.55	26.92	.8076
332.55	24.26	.7278

System: chloroform + 1-butyl-3-methylimidazolium tetrafluoroborate; phases: Liquid, Gas
Fixed: Mole fraction of chloroform = 0
Property: Activity coefficient of chloroform (Liquid); method: inverse gas chromatography
Temperature, K	Activity coefficient of chloroform	uncertainty
303.35	1.04	.0312
312.55	1.04	.0312
322.55	1.09	.0327
332.55	1.09	.0327

System: dichloromethane + 1-butyl-3-methylimidazolium tetrafluoroborate; phases: Liquid, Gas
Fixed: Mole fraction of dichloromethane = 0
Property: Activity coefficient of dichloromethane (Liquid); method: inverse gas chromatography
Temperature, K	Activity coefficient of dichloromethane	uncertainty
303.35	.69	.0207
312.55	.72	.0216
322.55	.79	.0237
332.55	.79	.0237

System: carbon tetrachloride + 1-butyl-3-methylimidazolium tetrafluoroborate; phases: Liquid, Gas
Fixed: Mole fraction of carbon tetrachloride = 0
Property: Activity coefficient of carbon tetrachloride (Liquid); method: inverse gas chromatography
Temperature, K	Activity coefficient of carbon tetrachloride	uncertainty
303.35	5.53	.1659
312.55	5.44	.1632
322.55	5.38	.1614
332.55	5.2	.156

System: acetonitrile + 1-butyl-3-methylimidazolium tetrafluoroborate; phases: Liquid, Gas
Fixed: Mole fraction of acetonitrile = 0
Property: Activity coefficient of acetonitrile (Liquid); method: inverse gas chromatography
Temperature, K	Activity coefficient of acetonitrile	uncertainty
303.35	.65	.0195
312.55	.63	.0189
322.55	.64	.0192
332.55	.61	.0183

System: nitromethane + 1-butyl-3-methylimidazolium tetrafluoroborate; phases: Liquid, Gas
Fixed: Mole fraction of nitromethane = 0
Property: Activity coefficient of nitromethane (Liquid); method: inverse gas chromatography
Temperature, K	Activity coefficient of nitromethane	uncertainty
303.35	.59	.0177
312.55	.56	.0168
322.55	.56	.0168
332.55	.56	.0168

System: 1-nitropropane + 1-butyl-3-methylimidazolium tetrafluoroborate; phases: Liquid, Gas
Fixed: Mole fraction of 1-nitropropane = 0
Property: Activity coefficient of 1-nitropropane (Liquid); method: inverse gas chromatography
Temperature, K	Activity coefficient of 1-nitropropane	uncertainty
303.35	1.54	.0462
312.55	1.46	.0438
322.55	1.46	.0438
332.55	1.5	.045

System: triethylamine + 1-butyl-3-methylimidazolium tetrafluoroborate; phases: Liquid, Gas
Fixed: Mole fraction of triethylamine = 0
Property: Activity coefficient of triethylamine (Liquid); method: inverse gas chromatography
Temperature, K	Activity coefficient of triethylamine	uncertainty
303.35	9.44	.2832
312.55	8.9	.267
322.55	35.28	1.0584
332.55	59.39	1.7817

System: pyridine + 1-butyl-3-methylimidazolium tetrafluoroborate; phases: Liquid, Gas
Fixed: Mole fraction of pyridine = 0
Property: Activity coefficient of pyridine (Liquid); method: inverse gas chromatography
Temperature, K	Activity coefficient of pyridine	uncertainty
303.35	1	.03
312.55	.99	.0297
322.55	.97	.0291
332.55	.94	.0282

System: thiophene + 1-butyl-3-methylimidazolium tetrafluoroborate; phases: Liquid, Gas
Fixed: Mole fraction of thiophene = 0
Property: Activity coefficient of thiophene (Liquid); method: inverse gas chromatography
Temperature, K	Activity coefficient of thiophene	uncertainty
303.35	1.56	.0468
312.55	1.52	.0456
322.55	1.54	.0462
332.55	1.49	.0447

System: methanal + 1-butyl-3-methylimidazolium tetrafluoroborate; phases: Liquid, Gas
Fixed: Mole fraction of methanal = 0
Property: Activity coefficient of methanal (Liquid); method: inverse gas chromatography
Temperature, K	Activity coefficient of methanal	uncertainty
303.35	.22	.0066
312.55	.23	.0069
322.55	.26	.0078
332.55	.25	.0075

System: propanal + 1-butyl-3-methylimidazolium tetrafluoroborate; phases: Liquid, Gas
Fixed: Mole fraction of propanal = 0
Property: Activity coefficient of propanal (Liquid); method: inverse gas chromatography
Temperature, K	Activity coefficient of propanal	uncertainty
303.35	1.38	.0414
312.55	1.33	.0399
322.55	1.29	.0387
332.55	1.21	.0363

System: butanal + 1-butyl-3-methylimidazolium tetrafluoroborate; phases: Liquid, Gas
Fixed: Mole fraction of butanal = 0
Property: Activity coefficient of butanal (Liquid); method: inverse gas chromatography
Temperature, K	Activity coefficient of butanal	uncertainty
303.35	2.19	.0657
312.55	2.13	.0639
322.55	2.15	.0645
332.55	2.06	.0618
