Measured thermophysical data. Measurements of the Liquid Viscosities of Mixtures  of Isobutane with Squalane to 30 MPa
Source: Int. J. Thermophys., 2007, 10.1007/s10765-007-0259-y
Compound 1: 2-methylpropane, C4H10, purity 99.9%
Compound 2: 2,6,10,15,19,23-hexamethyltetracosane, C30H62, purity 98%

System: 2-methylpropane; phases: Liquid
Property: Mass density, kg/m3 (Liquid); method: Constant-volume piezometry
Temperature, K	Pressure, kPa	Mass density, kg/m3	uncertainty
273.15	2000	586	2.344
273.15	10000	598	2.392
273.15	20000	609	2.436
273.15	30000	618	2.472
293.15	2000	563	2.252
293.15	10000	576	2.304
293.15	20000	589	2.356
293.15	30000	601	2.404
313.15	2000	537	2.148
313.15	10000	554	2.216
313.15	20000	571	2.284
313.15	30000	584	2.336
333.15	2000	509	2.036
333.15	10000	532	2.128
333.15	20000	552	2.208
333.15	30000	567	2.268

System: 2-methylpropane; phases: Liquid
Property: Viscosity, Pa*s (Liquid); method: Falling or rolling sphere viscometry
Temperature, K	Pressure, kPa	Viscosity, Pa*s	uncertainty
273.15	2000	.000197	.000005713
273.15	10000	.000217	.000006293
273.15	20000	.000241	.000006989
273.15	30000	.000261	.000007569
293.15	2000	.000162	.000004698
293.15	10000	.000179	.000005191
293.15	20000	.0002	.0000058
293.15	30000	.000219	.000006351
313.15	2000	.000132	.000003828
313.15	10000	.000149	.000004321
313.15	20000	.000167	.000004843
313.15	30000	.000186	.000005394
333.15	2000	.000109	.000003161
333.15	10000	.000126	.000003654
333.15	20000	.000145	.000004205
333.15	30000	.000161	.000004669

System: 2-methylpropane + 2,6,10,15,19,23-hexamethyltetracosane; phases: Liquid
Property: Mass density, kg/m3 (Liquid); method: Constant-volume piezometry
Temperature, K	Mole fraction of 2,6,10,15,19,23-hexamethyltetracosane	Pressure, kPa	Mass density, kg/m3	uncertainty
273.15	0	2000	586	2.344
273.15	0	10000	598	2.392
273.15	0	20000	609	2.436
273.15	0	30000	618	2.472
273.15	.169	2000	714	2.856
273.15	.169	10000	721	2.884
273.15	.169	20000	728	2.912
273.15	.169	30000	735	2.94
273.15	.288	2000	751	3.004
273.15	.288	10000	756	3.024
273.15	.288	20000	763	3.052
273.15	.288	30000	768	3.072
273.15	.513	2000	788	3.152
273.15	.513	10000	792	3.168
273.15	.513	20000	798	3.192
273.15	.513	30000	804	3.216
273.15	.777	2000	809	3.236
273.15	.777	10000	813	3.252
273.15	.777	20000	818	3.272
273.15	.777	30000	822	3.288
293.15	0	2000	563	2.252
293.15	0	10000	576	2.304
293.15	0	20000	589	2.356
293.15	0	30000	601	2.404
293.15	.169	2000	698	2.792
293.15	.169	10000	706	2.824
293.15	.169	20000	713	2.852
293.15	.169	30000	721	2.884
293.15	.288	2000	736	2.944
293.15	.288	10000	744	2.976
293.15	.288	20000	750	3
293.15	.288	30000	755	3.02
293.15	.513	2000	774	3.096
293.15	.513	10000	780	3.12
293.15	.513	20000	787	3.148
293.15	.513	30000	790	3.16
293.15	.777	2000	795	3.18
293.15	.777	10000	801	3.204
293.15	.777	20000	806	3.224
293.15	.777	30000	810	3.24
313.15	0	2000	537	2.148
313.15	0	10000	554	2.216
313.15	0	20000	571	2.284
313.15	0	30000	584	2.336
313.15	.169	2000	681	2.724
313.15	.169	10000	691	2.764
313.15	.169	20000	698	2.792
313.15	.169	30000	708	2.832
313.15	.288	2000	721	2.884
313.15	.288	10000	730	2.92
313.15	.288	20000	737	2.948
313.15	.288	30000	743	2.972
313.15	.509	2000	760	3.04
313.15	.509	10000	765	3.06
313.15	.509	20000	773	3.092
313.15	.509	30000	778	3.112
313.15	.763	2000	781	3.124
313.15	.763	10000	786	3.144
313.15	.763	20000	792	3.168
313.15	.763	30000	798	3.192
333.15	0	2000	509	2.036
333.15	0	10000	532	2.128
333.15	0	20000	552	2.208
333.15	0	30000	567	2.268
333.15	.169	2000	664	2.656
333.15	.169	10000	676	2.704
333.15	.169	20000	684	2.736
333.15	.169	30000	695	2.78
333.15	.288	2000	706	2.824
333.15	.288	10000	715	2.86
333.15	.288	20000	724	2.896
333.15	.288	30000	732	2.928
333.15	.509	2000	745	2.98
333.15	.509	10000	752	3.008
333.15	.509	20000	760	3.04
333.15	.509	30000	766	3.064
333.15	.763	2000	767	3.068
333.15	.763	10000	774	3.096
333.15	.763	20000	780	3.12
333.15	.763	30000	787	3.148

System: 2-methylpropane + 2,6,10,15,19,23-hexamethyltetracosane; phases: Liquid
Property: Viscosity, Pa*s (Liquid); method: Falling or rolling sphere viscometry
Temperature, K	Mole fraction of 2,6,10,15,19,23-hexamethyltetracosane	Pressure, kPa	Viscosity, Pa*s	uncertainty
273.15	0	2000	.000197	.000005713
273.15	0	10000	.000217	.000006293
273.15	0	20000	.000241	.000006989
273.15	0	30000	.000261	.000007569
273.15	.169	2000	.00169	.00004901
273.15	.169	10000	.00194	.00005626
273.15	.169	20000	.00222	.00006438
273.15	.169	30000	.00256	.00007424
273.15	.288	2000	.00422	.00012238
273.15	.288	10000	.00491	.00014239
273.15	.288	20000	.00587	.00017023
273.15	.288	30000	.00706	.00020474
273.15	.513	2000	.0216	.0006264
273.15	.513	10000	.0264	.0007656
273.15	.513	20000	.0332	.0009628
273.15	.513	30000	.0402	.0011658
273.15	.777	2000	.0758	.0021982
273.15	.777	10000	.0933	.0027057
273.15	.777	20000	.1192	.0034568
273.15	.777	30000	.1505	.0043645
293.15	.169	2000	.0012	.0000348
293.15	.169	10000	.00134	.00003886
293.15	.169	20000	.00153	.00004437
293.15	.169	30000	.00174	.00005046
293.15	.288	2000	.00249	.00007221
293.15	.288	10000	.00288	.00008352
293.15	.288	20000	.00337	.00009773
293.15	.288	30000	.00392	.00011368
293.15	.513	2000	.0102	.0002958
293.15	.513	10000	.0119	.0003451
293.15	.513	20000	.0145	.0004205
293.15	.513	30000	.0175	.0005075
293.15	.777	2000	.0267	.0007743
293.15	.777	10000	.0313	.0009077
293.15	.777	20000	.0384	.0011136
293.15	.777	30000	.0486	.0014094
293.15	0	2000	.000162	.000004698
293.15	0	10000	.000179	.000005191
293.15	0	20000	.0002	.0000058
293.15	0	30000	.000219	.000006351
313.15	.169	2000	.0009	.0000261
313.15	.169	10000	.00103	.00002987
313.15	.169	20000	.00118	.00003422
313.15	.169	30000	.00133	.00003857
313.15	.509	2000	.0043	.0001247
313.15	.509	10000	.00501	.00014529
313.15	.509	20000	.00596	.00017284
313.15	.509	30000	.00701	.00020329
313.15	.763	2000	.00877	.00025433
313.15	.763	10000	.0104	.0003016
313.15	.763	20000	.0129	.0003741
313.15	.763	30000	.0155	.0004495
313.15	0	2000	.000132	.000003828
313.15	0	10000	.000149	.000004321
313.15	0	20000	.000167	.000004843
313.15	0	30000	.000186	.000005394
313.15	.288	2000	.00168	.00004872
313.15	.288	10000	.00189	.00005481
313.15	.288	20000	.00217	.00006293
313.15	.288	30000	.00254	.00007366
333.15	.169	2000	.000622	.000018038
333.15	.169	10000	.000705	.000020445
333.15	.169	20000	.00082	.00002378
333.15	.169	30000	.000941	.000027289
333.15	.288	2000	.00117	.00003393
333.15	.288	10000	.00134	.00003886
333.15	.288	20000	.00157	.00004553
333.15	.288	30000	.00178	.00005162
333.15	.763	2000	.00556	.00016124
333.15	.763	10000	.0064	.0001856
333.15	.763	20000	.00756	.00021924
333.15	.763	30000	.00896	.00025984
333.15	.509	2000	.00273	.00007917
333.15	.509	10000	.00317	.00009193
333.15	.509	20000	.00375	.00010875
333.15	.509	30000	.00434	.00012586
333.15	0	2000	.000109	.000003161
333.15	0	10000	.000126	.000003654
333.15	0	20000	.000145	.000004205
333.15	0	30000	.000161	.000004669
