Measured thermophysical data. Viscometric and Volumetric Properties of 10 Regular Binary Systems at 308.15 K and 313.15 K
Source: Int. J. Thermophys., 2009, 10.1007/s10765-009-0667-2
Compound 1: benzene, C6H6
Compound 2: toluene, C7H8
Compound 3: ethylbenzene, C8H10
Compound 4: heptane, C7H16
Compound 5: cyclooctane, C8H16

System: benzene; phases: Liquid
Property: Mass density, kg/m3 (Liquid); method: Vibrating tube method
Temperature, K	Pressure, kPa	Mass density, kg/m3	uncertainty
308.15	101	862.9	.055
313.15	101	857.7	.055

System: benzene; phases: Liquid
Property: Viscosity, Pa*s (Liquid); method: Capillary tube (Ostwald; Ubbelohde) method
Temperature, K	Pressure, kPa	Viscosity, Pa*s	uncertainty
308.15	101	.0005272	
313.15	101	.0004942	

System: toluene; phases: Liquid
Property: Mass density, kg/m3 (Liquid); method: Vibrating tube method
Temperature, K	Pressure, kPa	Mass density, kg/m3	uncertainty
308.15	101	852.8	.055
313.15	101	848.3	.055
318.15	101	848.3	.055

System: toluene; phases: Liquid
Property: Viscosity, Pa*s (Liquid); method: Capillary tube (Ostwald; Ubbelohde) method
Temperature, K	Pressure, kPa	Viscosity, Pa*s	uncertainty
308.15	101	.000494	
313.15	101	.0004676	
313.15	101	.0004755	

System: ethylbenzene; phases: Liquid
Property: Mass density, kg/m3 (Liquid); method: Vibrating tube method
Temperature, K	Pressure, kPa	Mass density, kg/m3	uncertainty
308.15	101	853.7	.055
318.15	101	849.5	.055
313.15	101	849.5	.055

System: ethylbenzene; phases: Liquid
Property: Viscosity, Pa*s (Liquid); method: Capillary tube (Ostwald; Ubbelohde) method
Temperature, K	Pressure, kPa	Viscosity, Pa*s	uncertainty
308.15	101	.0005652	
313.15	101	.0005294	

System: heptane; phases: Liquid
Property: Mass density, kg/m3 (Liquid); method: Vibrating tube method
Temperature, K	Pressure, kPa	Mass density, kg/m3	uncertainty
308.15	101	671.3	.055
313.15	101	667.1	.055

System: heptane; phases: Liquid
Property: Viscosity, Pa*s (Liquid); method: Capillary tube (Ostwald; Ubbelohde) method
Temperature, K	Pressure, kPa	Viscosity, Pa*s	uncertainty
308.15	101	.0003497	
313.15	101	.0003329	

System: cyclooctane; phases: Liquid
Property: Mass density, kg/m3 (Liquid); method: Vibrating tube method
Temperature, K	Pressure, kPa	Mass density, kg/m3	uncertainty
308.15	101	823.6	.055
313.15	101	819.7	.055

System: cyclooctane; phases: Liquid
Property: Viscosity, Pa*s (Liquid); method: Capillary tube (Ostwald; Ubbelohde) method
Temperature, K	Pressure, kPa	Viscosity, Pa*s	uncertainty
308.15	101	.0018026	
313.15	101	.001636	

System: benzene + toluene; phases: Liquid
Fixed: Pressure, kPa = 101
Property: Mass density, kg/m3 (Liquid); method: Vibrating tube method
Temperature, K	Mole fraction of benzene	Mass density, kg/m3	uncertainty
308.15	1	862.9	.055
308.15	0	852.8	.055
308.15	.0403	853.1	.055
308.15	.1393	853.7	.055
308.15	.2551	854.5	.055
308.15	.3116	855	.055
308.15	.3863	855.7	.055
308.15	.5033	856.6	.055
308.15	.6139	857.8	.055
308.15	.7301	859.1	.055
308.15	.8551	860.8	.055
313.15	1	857.7	.055
313.15	0	848.3	.055
313.15	.0403	848.6	.055
313.15	.1393	849.1	.055
313.15	.2551	849.9	.055
313.15	.3116	850.3	.055
313.15	.3863	850.9	.055
313.15	.5033	851.8	.055
313.15	.6139	852.9	.055
313.15	.7301	854.1	.055
313.15	.8551	855.7	.055

System: benzene + toluene; phases: Liquid
Fixed: Pressure, kPa = 101
Property: Viscosity, Pa*s (Liquid); method: Capillary tube (Ostwald; Ubbelohde) method
Temperature, K	Mole fraction of benzene	Viscosity, Pa*s	uncertainty
308.15	1	.0005272	
308.15	0	.000494	
308.15	.0403	.0004943	
308.15	.1393	.0004998	
308.15	.2551	.0004968	
308.15	.3116	.0004968	
308.15	.3863	.0004977	
308.15	.5033	.000503	
308.15	.6139	.0005078	
308.15	.7301	.0005166	
308.15	.8551	.0005227	
313.15	1	.0004942	
313.15	0	.0004676	
313.15	.0403	.000468	
313.15	.1393	.0004681	
313.15	.2551	.0004693	
313.15	.3116	.000469	
313.15	.3863	.0004705	
313.15	.5033	.0004747	
313.15	.6139	.0004785	
313.15	.7301	.0004813	
313.15	.8551	.000487	

System: ethylbenzene + toluene; phases: Liquid
Fixed: Pressure, kPa = 101
Property: Mass density, kg/m3 (Liquid); method: Vibrating tube method
Temperature, K	Mole fraction of toluene	Mass density, kg/m3	uncertainty
308.15	1	852.8	.055
308.15	0	853.7	.055
308.15	.0424	853.7	.055
308.15	.128	853.7	.055
308.15	.2164	853.6	.055
308.15	.2928	853.6	.055
308.15	.393	853.5	.055
308.15	.4922	853.4	.055
308.15	.5716	853.4	.055
308.15	.7107	853.2	.055
308.15	.8425	853	.055
318.15	1	848.3	.055
318.15	0	849.5	.055
318.15	.0424	849.5	.055
318.15	.128	849.4	.055
318.15	.2164	849.3	.055
318.15	.2928	849.3	.055
318.15	.393	849.2	.055
318.15	.4922	849.1	.055
318.15	.5716	849	.055
318.15	.7107	848.8	.055
318.15	.8425	848.6	.055

System: ethylbenzene + toluene; phases: Liquid
Fixed: Pressure, kPa = 101
Property: Viscosity, Pa*s (Liquid); method: Capillary tube (Ostwald; Ubbelohde) method
Temperature, K	Mole fraction of toluene	Viscosity, Pa*s	uncertainty
308.15	1	.000494	
308.15	0	.0005652	
308.15	.0424	.0005587	
308.15	.128	.0005587	
308.15	.2164	.0005471	
308.15	.2928	.0005408	
308.15	.393	.0005379	
308.15	.4922	.0005349	
308.15	.5716	.0005243	
308.15	.7107	.0005125	
308.15	.8425	.0005108	
313.15	1	.0004755	
313.15	0	.0005294	
313.15	.0424	.0005306	
313.15	.128	.000525	
313.15	.2164	.0005185	
313.15	.2928	.0005124	
313.15	.393	.0005186	
313.15	.4922	.0005022	
313.15	.5716	.0004968	
313.15	.7107	.0004853	
313.15	.8425	.0004781	

System: toluene + heptane; phases: Liquid
Fixed: Pressure, kPa = 101
Property: Mass density, kg/m3 (Liquid); method: Vibrating tube method
Temperature, K	Mole fraction of heptane	Mass density, kg/m3	uncertainty
308.15	1	671.3	.055
308.15	0	852.8	.055
308.15	.0901	830.9	.055
308.15	.1949	807	.055
308.15	.299	786.6	.055
308.15	.3959	765.9	.055
308.15	.4836	749.6	.055
308.15	.5809	732.8	.055
308.15	.6809	716.6	.055
308.15	.792	699.8	.055
308.15	.8884	686.1	.055
313.15	1	667.1	.055
313.15	0	848.3	.055
313.15	.0901	826.5	.055
313.15	.1949	802.6	.055
313.15	.299	782.2	.055
313.15	.3959	761.6	.055
313.15	.4836	745.4	.055
313.15	.5809	728.6	.055
313.15	.6809	712.5	.055
313.15	.792	695.6	.055
313.15	.8884	682	.055

System: toluene + heptane; phases: Liquid
Fixed: Pressure, kPa = 101
Property: Viscosity, Pa*s (Liquid); method: Capillary tube (Ostwald; Ubbelohde) method
Temperature, K	Mole fraction of heptane	Viscosity, Pa*s	uncertainty
308.15	1	.0003497	
308.15	0	.000494	
308.15	.0901	.0004631	
308.15	.1949	.0004406	
308.15	.299	.000415	
308.15	.3959	.0003967	
308.15	.4836	.0003861	
308.15	.5809	.0003811	
308.15	.6809	.0003666	
308.15	.792	.0003575	
308.15	.8884	.0003605	
313.15	1	.0003329	
313.15	0	.0004676	
313.15	.0901	.0004392	
313.15	.1949	.0004129	
313.15	.299	.0003944	
313.15	.3959	.000377	
313.15	.4836	.0003668	
313.15	.5809	.0003562	
313.15	.6809	.0003488	
313.15	.792	.000341	
313.15	.8884	.0003367	

System: ethylbenzene + heptane; phases: Liquid
Fixed: Pressure, kPa = 101
Property: Mass density, kg/m3 (Liquid); method: Vibrating tube method
Temperature, K	Mole fraction of heptane	Mass density, kg/m3	uncertainty
308.15	1	671.3	.055
308.15	0	853.7	.055
308.15	.1034	831.5	.055
308.15	.2048	810.6	.055
308.15	.2931	793	.055
308.15	.3754	777.2	.055
308.15	.488	756.3	.055
308.15	.5929	737.7	.055
308.15	.6899	720.9	.055
308.15	.8051	701.8	.055
308.15	.8979	687.1	.055
313.15	1	667.1	.055
313.15	0	849.5	.055
313.15	.1034	827.4	.055
313.15	.2048	806.5	.055
313.15	.2931	788.8	.055
313.15	.3754	773	.055
313.15	.488	752.2	.055
313.15	.5929	733.6	.055
313.15	.6899	716.7	.055
313.15	.8051	697.7	.055
313.15	.8979	683	.055

System: ethylbenzene + heptane; phases: Liquid
Fixed: Pressure, kPa = 101
Property: Viscosity, Pa*s (Liquid); method: Capillary tube (Ostwald; Ubbelohde) method
Temperature, K	Mole fraction of heptane	Viscosity, Pa*s	uncertainty
308.15	1	.0003497	
308.15	0	.0005652	
308.15	.1034	.0005217	
308.15	.2048	.0004925	
308.15	.2931	.0004625	
308.15	.3754	.00044	
308.15	.488	.0004195	
308.15	.5929	.0004061	
308.15	.6899	.0003859	
308.15	.8051	.000369	
308.15	.8979	.0003659	
313.15	1	.0003329	
313.15	0	.0005294	
313.15	.1034	.0004945	
313.15	.2048	.0004631	
313.15	.2931	.0004393	
313.15	.3754	.000419	
313.15	.488	.0003986	
313.15	.5929	.0003807	
313.15	.6899	.0003669	
313.15	.8051	.0003516	
313.15	.8979	.0003425	

System: benzene + ethylbenzene; phases: Liquid
Fixed: Pressure, kPa = 101
Property: Mass density, kg/m3 (Liquid); method: Vibrating tube method
Temperature, K	Mole fraction of benzene	Mass density, kg/m3	uncertainty
308.15	1	862.9	.055
308.15	0	853.7	.055
308.15	.0877	854.1	.055
308.15	.1855	854.6	.055
308.15	.295	855.2	.055
308.15	.4137	856	.055
308.15	.498	856.6	.055
308.15	.5965	857.5	.055
308.15	.7108	858.7	.055
308.15	.7904	859.7	.055
308.15	.8983	861.2	.055
313.15	1	857.7	.055
313.15	0	849.5	.055
313.15	.0877	849.8	.055
313.15	.1855	850.2	.055
313.15	.295	850.8	.055
313.15	.4137	851.5	.055
313.15	.498	852.1	.055
313.15	.5965	852.8	.055
313.15	.7108	853.9	.055
313.15	.7904	854.8	.055
313.15	.8983	856.2	.055

System: benzene + ethylbenzene; phases: Liquid
Fixed: Pressure, kPa = 101
Property: Viscosity, Pa*s (Liquid); method: Capillary tube (Ostwald; Ubbelohde) method
Temperature, K	Mole fraction of benzene	Viscosity, Pa*s	uncertainty
308.15	1	.0005272	
308.15	0	.0005652	
308.15	.0877	.0005584	
308.15	.1855	.0005563	
308.15	.295	.0005472	
308.15	.4137	.0005392	
308.15	.498	.0005382	
308.15	.5965	.0005382	
308.15	.7108	.0005308	
308.15	.7904	.0005263	
308.15	.8983	.0005309	
313.15	1	.0004942	
313.15	0	.0005294	
313.15	.0877	.0005282	
313.15	.1855	.0005234	
313.15	.295	.0005172	
313.15	.4137	.0005096	
313.15	.498	.000508	
313.15	.5965	.0005039	
313.15	.7108	.0004996	
313.15	.7904	.0004954	
313.15	.8983	.0004949	

System: benzene + heptane; phases: Liquid
Fixed: Pressure, kPa = 101
Property: Mass density, kg/m3 (Liquid); method: Vibrating tube method
Temperature, K	Mole fraction of benzene	Mass density, kg/m3	uncertainty
308.15	1	862.9	.055
308.15	0	671.3	.055
308.15	.1099	683.6	.055
308.15	.2052	695.3	.055
308.15	.2896	706.6	.055
308.15	.4212	726.5	.055
308.15	.5078	740.9	.055
308.15	.6087	760	.055
308.15	.7263	785.5	.055
308.15	.7936	801.9	.055
308.15	.8987	830.6	.055
313.15	1	857.7	.055
313.15	0	667.1	.055
313.15	.1099	679.4	.055
313.15	.2052	691.1	.055
313.15	.2896	702.4	.055
313.15	.4212	722.1	.055
313.15	.5078	736.4	.055
313.15	.6087	755.4	.055
313.15	.7263	780.8	.055
313.15	.7936	797.1	.055
313.15	.8987	825.6	.055

System: benzene + heptane; phases: Liquid
Fixed: Pressure, kPa = 101
Property: Viscosity, Pa*s (Liquid); method: Capillary tube (Ostwald; Ubbelohde) method
Temperature, K	Mole fraction of benzene	Viscosity, Pa*s	uncertainty
308.15	1	.0005272	
308.15	0	.0003497	
308.15	.1099	.0003518	
308.15	.2052	.0003593	
308.15	.2896	.0003562	
308.15	.4212	.0003632	
308.15	.5078	.0003724	
308.15	.6087	.0003925	
308.15	.7263	.0004094	
308.15	.7936	.0004262	
308.15	.8987	.0004734	
313.15	1	.0004942	
313.15	0	.0003329	
313.15	.1099	.0003342	
313.15	.2052	.0003356	
313.15	.2896	.0003387	
313.15	.4212	.000345	
313.15	.5078	.0003534	
313.15	.6087	.0003667	
313.15	.7263	.0003879	
313.15	.7936	.0004031	
313.15	.8987	.0004408	

System: benzene + cyclooctane; phases: Liquid
Fixed: Pressure, kPa = 101
Property: Mass density, kg/m3 (Liquid); method: Vibrating tube method
Temperature, K	Mole fraction of benzene	Mass density, kg/m3	uncertainty
308.15	1	862.9	.055
308.15	0	823.6	.055
308.15	.1004	824.9	.055
308.15	.1826	826.4	.055
308.15	.3035	829	.055
308.15	.408	831.9	.055
308.15	.5122	835.2	.055
308.15	.5243	835.7	.055
308.15	.6891	842.7	.055
308.15	.7904	848.1	.055
308.15	.9001	855.1	.055
313.15	1	857.7	.055
313.15	0	819.7	.055
313.15	.1004	821	.055
313.15	.1826	822.4	.055
313.15	.3035	824.9	.055
313.15	.408	827.6	.055
313.15	.5122	830.9	.055
313.15	.5243	831.4	.055
313.15	.6891	838.1	.055
313.15	.7904	843.3	.055
313.15	.9001	850.1	.055

System: benzene + cyclooctane; phases: Liquid
Fixed: Pressure, kPa = 101
Property: Viscosity, Pa*s (Liquid); method: Capillary tube (Ostwald; Ubbelohde) method
Temperature, K	Mole fraction of benzene	Viscosity, Pa*s	uncertainty
308.15	1	.0005272	
308.15	0	.0018026	
308.15	.1004	.0014936	
308.15	.1826	.0012944	
308.15	.3035	.0010723	
308.15	.408	.0009222	
308.15	.5122	.0008085	
308.15	.5243	.0007963	
308.15	.6891	.0006667	
308.15	.7904	.0006042	
308.15	.9001	.0005651	
313.15	1	.0004942	
313.15	0	.001636	
313.15	.1004	.0013678	
313.15	.1826	.0011934	
313.15	.3035	.000993	
313.15	.408	.000859	
313.15	.5122	.0007548	
313.15	.5243	.0007437	
313.15	.6891	.0006274	
313.15	.7904	.0005677	
313.15	.9001	.0005263	

System: toluene + cyclooctane; phases: Liquid
Fixed: Pressure, kPa = 101
Property: Mass density, kg/m3 (Liquid); method: Vibrating tube method
Temperature, K	Mole fraction of toluene	Mass density, kg/m3	uncertainty
308.15	1	852.8	.055
308.15	0	823.6	.055
308.15	.0997	824.6	.055
308.15	.1951	826	.055
308.15	.3032	828.1	.055
308.15	.3904	830	.055
308.15	.4868	832.5	.055
308.15	.5898	835.6	.055
308.15	.6919	839.2	.055
308.15	.8003	843.4	.055
308.15	.888	847.3	.055
313.15	1	848.3	.055
313.15	0	819.7	.055
313.15	.0997	820.7	.055
313.15	.1951	822.1	.055
313.15	.3032	824.1	.055
313.15	.3904	826	.055
313.15	.4868	828.5	.055
313.15	.5898	831.4	.055
313.15	.6919	834.9	.055
313.15	.8003	839.1	.055
313.15	.888	842.9	.055

System: toluene + cyclooctane; phases: Liquid
Fixed: Pressure, kPa = 101
Property: Viscosity, Pa*s (Liquid); method: Capillary tube (Ostwald; Ubbelohde) method
Temperature, K	Mole fraction of toluene	Viscosity, Pa*s	uncertainty
308.15	1	.000494	
308.15	0	.0018026	
308.15	.0997	.0014427	
308.15	.1951	.0011978	
308.15	.3032	.0010026	
308.15	.3904	.0008748	
308.15	.4868	.0007834	
308.15	.5898	.0006981	
308.15	.6919	.0006266	
308.15	.8003	.0005673	
308.15	.888	.0005361	
313.15	1	.0004676	
313.15	0	.001636	
313.15	.0997	.0013256	
313.15	.1951	.0011124	
313.15	.3032	.0009333	
313.15	.3904	.0008203	
313.15	.4868	.000701	
313.15	.5898	.0006579	
313.15	.6919	.0005912	
313.15	.8003	.0005364	
313.15	.888	.0005033	

System: ethylbenzene + cyclooctane; phases: Liquid
Fixed: Pressure, kPa = 101
Property: Mass density, kg/m3 (Liquid); method: Vibrating tube method
Temperature, K	Mole fraction of ethylbenzene	Mass density, kg/m3	uncertainty
308.15	1	853.7	.055
308.15	0	823.6	.055
308.15	.0907	824.8	.055
308.15	.2033	827.1	.055
308.15	.3072	829.5	.055
308.15	.3701	831.2	.055
308.15	.4761	834.2	.055
308.15	.5798	837.5	.055
308.15	.7008	841.7	.055
308.15	.7922	845.1	.055
308.15	.8908	849	.055
313.15	1	849.5	.055
313.15	0	819.7	.055
313.15	.0907	820.9	.055
313.15	.2033	823.2	.055
313.15	.3072	825.6	.055
313.15	.3701	827.2	.055
313.15	.4761	830.2	.055
313.15	.5798	833.4	.055
313.15	.7008	837.6	.055
313.15	.7922	840.9	.055
313.15	.8908	844.8	.055

System: ethylbenzene + cyclooctane; phases: Liquid
Fixed: Pressure, kPa = 101
Property: Viscosity, Pa*s (Liquid); method: Capillary tube (Ostwald; Ubbelohde) method
Temperature, K	Mole fraction of ethylbenzene	Viscosity, Pa*s	uncertainty
308.15	1	.0005652	
308.15	0	.0018026	
308.15	.0907	.0014874	
308.15	.2033	.0012061	
308.15	.3072	.0010215	
308.15	.3701	.0009433	
308.15	.4761	.0008369	
308.15	.5798	.0007568	
308.15	.7008	.0006736	
308.15	.7922	.0006351	
308.15	.8908	.0005958	
313.15	1	.0005294	
313.15	0	.001636	
313.15	.0907	.0013556	
313.15	.2033	.0011104	
313.15	.3072	.0009578	
313.15	.3701	.0008765	
313.15	.4761	.0007835	
313.15	.5798	.0007089	
313.15	.7008	.0006403	
313.15	.7922	.0005979	
313.15	.8908	.0005629	

System: heptane + cyclooctane; phases: Liquid
Fixed: Pressure, kPa = 101
Property: Mass density, kg/m3 (Liquid); method: Vibrating tube method
Temperature, K	Mole fraction of heptane	Mass density, kg/m3	uncertainty
308.15	1	671.3	.055
308.15	0	823.6	.055
308.15	.0938	807.7	.055
308.15	.1897	793	.055
308.15	.2896	777.5	.055
308.15	.3979	760.8	.055
308.15	.4949	746.1	.055
308.15	.5964	730.9	.055
308.15	.6919	716.7	.055
308.15	.7795	703.6	.055
308.15	.8934	686.9	.055
313.15	1	667.1	.055
313.15	0	819.7	.055
313.15	.0938	803.8	.055
313.15	.1897	789.1	.055
313.15	.2896	773.6	.055
313.15	.3979	756.8	.055
313.15	.4949	742.2	.055
313.15	.5964	726.9	.055
313.15	.6919	712.7	.055
313.15	.7795	699.7	.055
313.15	.8934	682.8	.055

System: heptane + cyclooctane; phases: Liquid
Fixed: Pressure, kPa = 101
Property: Viscosity, Pa*s (Liquid); method: Capillary tube (Ostwald; Ubbelohde) method
Temperature, K	Mole fraction of heptane	Viscosity, Pa*s	uncertainty
308.15	1	.0003497	
308.15	0	.0018026	
308.15	.0938	.001405	
308.15	.1897	.0011251	
308.15	.2896	.0009246	
308.15	.3979	.0007613	
308.15	.4949	.0006608	
308.15	.5964	.0005725	
308.15	.6919	.0005028	
308.15	.7795	.0004487	
308.15	.8934	.0004002	
313.15	1	.0003329	
313.15	0	.001636	
313.15	.0938	.001288	
313.15	.1897	.0010439	
313.15	.2896	.0008605	
313.15	.3979	.0007127	
313.15	.4949	.0006207	
313.15	.5964	.0005389	
313.15	.6919	.0004754	
313.15	.7795	.0004256	
313.15	.8934	.0003754	
