Measured thermophysical data. Densities and Viscosities of Binary Mixtures of Methanol with Dimethyl Methylphosphonate and Dimethyl Phosphite from (293.15 to 333.15) K
Source: Int. J. Thermophys., 2011, 10.1007/s10765-011-0989-8
Compound 1: phosphonic acid, methyl-, dimethyl ester, C3H9O3P
Compound 2: dimethyl phosphite, C2H7O3P
Compound 3: methanol, CH4O

System: phosphonic acid, methyl-, dimethyl ester; phases: Liquid
Property: Mass density, kg/m3 (Liquid); method: Pycnometric method
Temperature, K	Pressure, kPa	Mass density, kg/m3	uncertainty
293.15	101	1161.9	.58095
298.15	101	1156.6	.5783
303.15	101	1151.2	.5756
308.15	101	1146	.573
313.15	101	1141.1	.57055
323.15	101	1131.7	.56585
333.15	101	1123.3	.56165

System: phosphonic acid, methyl-, dimethyl ester; phases: Liquid
Property: Viscosity, Pa*s (Liquid); method: Capillary tube (Ostwald; Ubbelohde) method
Temperature, K	Pressure, kPa	Viscosity, Pa*s	uncertainty
293.15	101	.001742	.00003484
298.15	101	.001587	.00003174
303.15	101	.001447	.00002894
308.15	101	.001323	.00002646
313.15	101	.001214	.00002428
323.15	101	.001031	.00002062
333.15	101	.000883	.00001766

System: dimethyl phosphite; phases: Liquid
Property: Mass density, kg/m3 (Liquid); method: Pycnometric method
Temperature, K	Pressure, kPa	Mass density, kg/m3	uncertainty
293.15	101	1192	.596
298.15	101	1184.9	.59245
303.15	101	1177.9	.58895
308.15	101	1169.6	.5848
313.15	101	1161.4	.5807
323.15	101	1147.2	.5736
333.15	101	1130.9	.56545

System: dimethyl phosphite; phases: Liquid
Property: Viscosity, Pa*s (Liquid); method: Capillary tube (Ostwald; Ubbelohde) method
Temperature, K	Pressure, kPa	Viscosity, Pa*s	uncertainty
293.15	101	.001361	.00002722
298.15	101	.001273	.00002546
303.15	101	.001179	.00002358
308.15	101	.001101	.00002202
313.15	101	.001017	.00002034
323.15	101	.000897	.00001794
333.15	101	.000808	.00001616

System: methanol; phases: Liquid
Property: Mass density, kg/m3 (Liquid); method: Pycnometric method
Temperature, K	Pressure, kPa	Mass density, kg/m3	uncertainty
293.15	101	791	.3955
298.15	101	786.4	.3932
303.15	101	781.8	.3909
308.15	101	777.2	.3886
313.15	101	771.8	.3859
323.15	101	762.3	.38115
333.15	101	752.4	.3762

System: methanol; phases: Liquid
Property: Viscosity, Pa*s (Liquid); method: Capillary tube (Ostwald; Ubbelohde) method
Temperature, K	Pressure, kPa	Viscosity, Pa*s	uncertainty
293.15	101	.000595	.0000119
298.15	101	.000552	.00001104
303.15	101	.000514	.00001028
308.15	101	.000478	.00000956
313.15	101	.000449	.00000898
323.15	101	.000394	.00000788
333.15	101	.000349	.00000698

System: methanol + phosphonic acid, methyl-, dimethyl ester; phases: Liquid
Fixed: Pressure, kPa = 101
Property: Mass density, kg/m3 (Liquid); method: Pycnometric method
Mole fraction of methanol	Temperature, K	Mass density, kg/m3	uncertainty
0	293.15	1161.9	.58095
0	298.15	1156.6	.5783
0	303.15	1151.2	.5756
0	308.15	1146	.573
0	313.15	1141.1	.57055
0	323.15	1131.7	.56585
0	333.15	1123.3	.56165
.1033	293.15	1145	.5725
.1033	298.15	1139.5	.56975
.1033	303.15	1134.1	.56705
.1033	308.15	1128.8	.5644
.1033	313.15	1123.3	.56165
.1033	323.15	1113.6	.5568
.1033	333.15	1104.6	.5523
.1938	293.15	1129	.5645
.1938	298.15	1123.4	.5617
.1938	303.15	1117.8	.5589
.1938	308.15	1112.6	.5563
.1938	313.15	1106.9	.55345
.1938	323.15	1097.1	.54855
.1938	333.15	1088.1	.54405
.2901	293.15	1109.6	.5548
.2901	298.15	1104.1	.55205
.2901	303.15	1098.5	.54925
.2901	308.15	1093.1	.54655
.2901	313.15	1087.2	.5436
.2901	323.15	1077	.5385
.2901	333.15	1068.1	.53405
.395	293.15	1085	.5425
.395	298.15	1079.3	.53965
.395	303.15	1073.7	.53685
.395	308.15	1068.4	.5342
.395	313.15	1062.1	.53105
.395	323.15	1051.8	.5259
.395	333.15	1042.4	.5212
.507	293.15	1053.5	.52675
.507	298.15	1047.6	.5238
.507	303.15	1042.1	.52105
.507	308.15	1036.7	.51835
.507	313.15	1029.8	.5149
.507	323.15	1019.1	.50955
.507	333.15	1009	.5045
.6016	293.15	1021.7	.51085
.6016	298.15	1015.6	.5078
.6016	303.15	1010.3	.50515
.6016	308.15	1004.5	.50225
.6016	313.15	997.1	.49855
.6016	323.15	986.3	.49315
.6016	333.15	975.9	.48795
.6991	293.15	982.4	.4912
.6991	298.15	976.3	.48815
.6991	303.15	970.7	.48535
.6991	308.15	965.4	.4827
.6991	313.15	957.1	.47855
.6991	323.15	945.8	.4729
.6991	333.15	935.3	.46765
.7997	293.15	932.9	.46645
.7997	298.15	927	.4635
.7997	303.15	921.8	.4609
.7997	308.15	916.3	.45815
.7997	313.15	908.6	.4543
.7997	323.15	898.2	.4491
.7997	333.15	887.5	.44375
.901	293.15	871.5	.43575
.901	298.15	864.2	.4321
.901	303.15	858.8	.4294
.901	308.15	853.2	.4266
.901	313.15	847	.4235
.901	323.15	836.8	.4184
.901	333.15	826.1	.41305
1	293.15	791	.3955
1	298.15	786.4	.3932
1	303.15	781.8	.3909
1	308.15	777.2	.3886
1	313.15	771.8	.3859
1	323.15	762.3	.38115
1	333.15	752.4	.3762

System: methanol + phosphonic acid, methyl-, dimethyl ester; phases: Liquid
Fixed: Pressure, kPa = 101
Property: Viscosity, Pa*s (Liquid); method: Capillary tube (Ostwald; Ubbelohde) method
Mole fraction of methanol	Temperature, K	Viscosity, Pa*s	uncertainty
0	293.15	.001742	.00003484
0	298.15	.001587	.00003174
0	303.15	.001447	.00002894
0	308.15	.001323	.00002646
0	313.15	.001214	.00002428
0	323.15	.001031	.00002062
0	333.15	.000883	.00001766
.1033	293.15	.001558	.00003116
.1033	298.15	.001422	.00002844
.1033	303.15	.0013	.000026
.1033	308.15	.001195	.0000239
.1033	313.15	.001104	.00002208
.1033	323.15	.000938	.00001876
.1033	333.15	.00081	.0000162
.1938	293.15	.001411	.00002822
.1938	298.15	.00129	.0000258
.1938	303.15	.001182	.00002364
.1938	308.15	.001091	.00002182
.1938	313.15	.00101	.0000202
.1938	323.15	.000863	.00001726
.1938	333.15	.000749	.00001498
.2901	293.15	.001268	.00002536
.2901	298.15	.001161	.00002322
.2901	303.15	.001064	.00002128
.2901	308.15	.000985	.0000197
.2901	313.15	.000918	.00001836
.2901	323.15	.000782	.00001564
.2901	333.15	.000681	.00001362
.395	293.15	.001126	.00002252
.395	298.15	.001033	.00002066
.395	303.15	.000949	.00001898
.395	308.15	.000883	.00001766
.395	313.15	.000826	.00001652
.395	323.15	.000708	.00001416
.395	333.15	.000617	.00001234
.507	293.15	.000981	.00001962
.507	298.15	.000906	.00001812
.507	303.15	.000837	.00001674
.507	308.15	.000782	.00001564
.507	313.15	.000735	.0000147
.507	323.15	.000633	.00001266
.507	333.15	.000553	.00001106
.6016	293.15	.000869	.00001738
.6016	298.15	.000805	.0000161
.6016	303.15	.000746	.00001492
.6016	308.15	.000702	.00001404
.6016	313.15	.000661	.00001322
.6016	323.15	.000571	.00001142
.6016	333.15	.000501	.00001002
.6991	293.15	.000756	.00001512
.6991	298.15	.000702	.00001404
.6991	303.15	.000655	.0000131
.6991	308.15	.00062	.0000124
.6991	313.15	.000585	.0000117
.6991	323.15	.000515	.0000103
.6991	333.15	.000448	.00000896
.7997	293.15	.000669	.00001338
.7997	298.15	.000621	.00001242
.7997	303.15	.000578	.00001156
.7997	308.15	.000557	.00001114
.7997	313.15	.000532	.00001064
.7997	323.15	.000466	.00000932
.7997	333.15	.000415	.0000083
.901	293.15	.00062	.0000124
.901	298.15	.000571	.00001142
.901	303.15	.000526	.00001052
.901	308.15	.000503	.00001006
.901	313.15	.000484	.00000968
.901	323.15	.000422	.00000844
.901	333.15	.000381	.00000762
1	293.15	.000595	.0000119
1	298.15	.000552	.00001104
1	303.15	.000514	.00001028
1	308.15	.000478	.00000956
1	313.15	.000449	.00000898
1	323.15	.000394	.00000788
1	333.15	.000349	.00000698

System: methanol + dimethyl phosphite; phases: Liquid
Fixed: Pressure, kPa = 101
Property: Mass density, kg/m3 (Liquid); method: Pycnometric method
Mole fraction of methanol	Temperature, K	Mass density, kg/m3	uncertainty
0	293.15	1192	.596
0	298.15	1184.9	.59245
0	303.15	1177.9	.58895
0	308.15	1169.6	.5848
0	313.15	1161.4	.5807
0	323.15	1147.2	.5736
0	333.15	1130.9	.56545
.1062	293.15	1175.7	.58785
.1062	298.15	1169.3	.58465
.1062	303.15	1162.6	.5813
.1062	308.15	1154.6	.5773
.1062	313.15	1146.8	.5734
.1062	323.15	1132.9	.56645
.1062	333.15	1116.9	.55845
.2263	293.15	1153.6	.5768
.2263	298.15	1147.2	.5736
.2263	303.15	1140.9	.57045
.2263	308.15	1133.3	.56665
.2263	313.15	1125.7	.56285
.2263	323.15	1112.1	.55605
.2263	333.15	1096.8	.5484
.3134	293.15	1134.6	.5673
.3134	298.15	1128.3	.56415
.3134	303.15	1122.2	.5611
.3134	308.15	1114.6	.5573
.3134	313.15	1107.3	.55365
.3134	323.15	1094.1	.54705
.3134	333.15	1079.1	.53955
.4262	293.15	1105.6	.5528
.4262	298.15	1099.6	.5498
.4262	303.15	1093.4	.5467
.4262	308.15	1086.6	.5433
.4262	313.15	1079.4	.5397
.4262	323.15	1066.7	.53335
.4262	333.15	1052.1	.52605
.5379	293.15	1070.9	.53545
.5379	298.15	1065	.5325
.5379	303.15	1059.3	.52965
.5379	308.15	1052.8	.5264
.5379	313.15	1046	.523
.5379	323.15	1033.8	.5169
.5379	333.15	1019.7	.50985
.6289	293.15	1036.7	.51835
.6289	298.15	1031.3	.51565
.6289	303.15	1025.9	.51295
.6289	308.15	1019.6	.5098
.6289	313.15	1013.4	.5067
.6289	323.15	1001.4	.5007
.6289	333.15	988.1	.49405
.7262	293.15	992.3	.49615
.7262	298.15	986.8	.4934
.7262	303.15	981.9	.49095
.7262	308.15	976.2	.4881
.7262	313.15	969.7	.48485
.7262	323.15	958.5	.47925
.7262	333.15	945.8	.4729
.8375	293.15	927.6	.4638
.8375	298.15	922.9	.46145
.8375	303.15	918.2	.4591
.8375	308.15	912.9	.45645
.8375	313.15	906.8	.4534
.8375	323.15	896	.448
.8375	333.15	884.9	.44245
.9384	293.15	850.7	.42535
.9384	298.15	846.1	.42305
.9384	303.15	841.3	.42065
.9384	308.15	836.6	.4183
.9384	313.15	830.9	.41545
.9384	323.15	821	.4105
.9384	333.15	810.6	.4053
1	293.15	791	.3955
1	298.15	786.4	.3932
1	303.15	781.8	.3909
1	308.15	777.2	.3886
1	313.15	771.8	.3859
1	323.15	762.3	.38115
1	333.15	752.4	.3762

System: methanol + dimethyl phosphite; phases: Liquid
Fixed: Pressure, kPa = 101
Property: Viscosity, Pa*s (Liquid); method: Capillary tube (Ostwald; Ubbelohde) method
Mole fraction of methanol	Temperature, K	Viscosity, Pa*s	uncertainty
0	293.15	.001361	.00002722
0	298.15	.001273	.00002546
0	303.15	.001179	.00002358
0	308.15	.001101	.00002202
0	313.15	.001017	.00002034
0	323.15	.000897	.00001794
0	333.15	.000808	.00001616
.1062	293.15	.001288	.00002576
.1062	298.15	.001204	.00002408
.1062	303.15	.001115	.0000223
.1062	308.15	.00104	.0000208
.1062	313.15	.000961	.00001922
.1062	323.15	.000847	.00001694
.1062	333.15	.000762	.00001524
.2263	293.15	.001204	.00002408
.2263	298.15	.001125	.0000225
.2263	303.15	.001042	.00002084
.2263	308.15	.000972	.00001944
.2263	313.15	.000899	.00001798
.2263	323.15	.000792	.00001584
.2263	333.15	.000711	.00001422
.3134	293.15	.001144	.00002288
.3134	298.15	.001068	.00002136
.3134	303.15	.000989	.00001978
.3134	308.15	.000921	.00001842
.3134	313.15	.000852	.00001704
.3134	323.15	.000751	.00001502
.3134	333.15	.000674	.00001348
.4262	293.15	.001065	.0000213
.4262	298.15	.000994	.00001988
.4262	303.15	.000919	.00001838
.4262	308.15	.000856	.00001712
.4262	313.15	.000793	.00001586
.4262	323.15	.000698	.00001396
.4262	333.15	.000625	.0000125
.5379	293.15	.000949	.00001898
.5379	298.15	.000919	.00001838
.5379	303.15	.00085	.000017
.5379	308.15	.000791	.00001582
.5379	313.15	.000733	.00001466
.5379	323.15	.000645	.0000129
.5379	333.15	.000576	.00001152
.6289	293.15	.000879	.00001758
.6289	298.15	.000858	.00001716
.6289	303.15	.000793	.00001586
.6289	308.15	.000737	.00001474
.6289	313.15	.000684	.00001368
.6289	323.15	.000602	.00001204
.6289	333.15	.000537	.00001074
.7262	293.15	.000805	.0000161
.7262	298.15	.00079	.0000158
.7262	303.15	.00073	.0000146
.7262	308.15	.000679	.00001358
.7262	313.15	.000631	.00001262
.7262	323.15	.000555	.0000111
.7262	333.15	.000494	.00000988
.8375	293.15	.000719	.00001438
.8375	298.15	.000706	.00001412
.8375	303.15	.000654	.00001308
.8375	308.15	.000608	.00001216
.8375	313.15	.000565	.0000113
.8375	323.15	.000497	.00000994
.8375	333.15	.000442	.00000884
.9384	293.15	.00067	.0000134
.9384	298.15	.000619	.00001238
.9384	303.15	.000574	.00001148
.9384	308.15	.000533	.00001066
.9384	313.15	.000499	.00000998
.9384	323.15	.000439	.00000878
.9384	333.15	.00039	.0000078
1	293.15	.000595	.0000119
1	298.15	.000552	.00001104
1	303.15	.000514	.00001028
1	308.15	.000478	.00000956
1	313.15	.000449	.00000898
1	323.15	.000394	.00000788
1	333.15	.000349	.00000698
