Measured thermophysical data. Viscosities of L-Histidine/L-Glutamic  Acid/L-Tryptophan/Glycylglycine+2 M Aqueous  KCl/KNO3 Solutions at T =(298.15 to 323.15)K
Source: Int. J. Thermophys., 2011, 10.1007/s10765-011-0996-9
Compound 1: L-alanine, 3-(1H-imidazol-4-yl)-, C6H9N3O2
Compound 2: glutamic acid, C5H9NO4
Compound 3: L-tryptophan, C11H12N2O2
Compound 4: glycylglycine, C4H8N2O3
Compound 5: potassium chloride, ClK
Compound 6: nitric acid potassium salt, KNO3
Compound 7: water, H2O, purity 99%

System: L-alanine, 3-(1H-imidazol-4-yl)- + potassium chloride + water; phases: Liquid
Fixed: Pressure, kPa = 101
Fixed: Solvent: Amount concentration (molarity), mol/dm3 of potassium chloride = 2
Property: Viscosity, Pa*s (Liquid); method: Capillary tube (Ostwald; Ubbelohde) method
Temperature, K	Molality, mol/kg of L-alanine, 3-(1H-imidazol-4-yl)-	Viscosity, Pa*s	uncertainty
298.15	0	.0009063	.000001
298.15	.0277	.000917	.000001
298.15	.0555	.0009282	.000001
298.15	.0836	.0009389	.000001
298.15	.1117	.0009524	.000001
298.15	.14	.0009667	.000001
298.15	.1686	.0009816	.000001
298.15	.1974	.0009936	.000001
298.15	.2263	.001006	.000001
303.15	0	.0008279	.000001
303.15	.0277	.0008355	.000001
303.15	.0555	.0008459	.000001
303.15	.0836	.0008545	.000001
303.15	.1117	.0008653	.000001
303.15	.14	.0008812	.000001
303.15	.1686	.0008903	.000001
303.15	.1974	.0008995	.000001
303.15	.2263	.0009089	.000001
308.15	0	.0007573	.000001
308.15	.0277	.0007654	.000001
308.15	.0555	.0007751	.000001
308.15	.0836	.0007829	.000001
308.15	.1117	.0007922	.000001
308.15	.14	.0008048	.000001
308.15	.1686	.0008144	.000001
308.15	.1974	.0008234	.000001
308.15	.2263	.0008333	.000001
313.15	0	.0006954	.000001
313.15	.0277	.0007034	.000001
313.15	.0555	.0007111	.000001
313.15	.0836	.0007183	.000001
313.15	.1117	.0007267	.000001
313.15	.14	.0007366	.000001
313.15	.1686	.0007474	.000001
313.15	.1974	.0007543	.000001
313.15	.2263	.0007628	.000001
318.15	0	.00064	.000001
318.15	.0277	.0006473	.000001
318.15	.0555	.0006549	.000001
318.15	.0836	.000662	.000001
318.15	.1117	.0006697	.000001
318.15	.14	.0006819	.000001
318.15	.1686	.0006882	.000001
318.15	.1974	.0006962	.000001
318.15	.2263	.0007046	.000001
323.15	0	.0005914	.000001
323.15	.0277	.0005985	.000001
323.15	.0555	.0006055	.000001
323.15	.0836	.0006117	.000001
323.15	.1117	.0006199	.000001
323.15	.14	.000627	.000001
323.15	.1686	.0006351	.000001
323.15	.1974	.0006424	.000001
323.15	.2263	.0006487	.000001

System: L-alanine, 3-(1H-imidazol-4-yl)- + water + nitric acid potassium salt; phases: Liquid
Fixed: Pressure, kPa = 101
Fixed: Solvent: Amount concentration (molarity), mol/dm3 of nitric acid potassium salt = 2
Property: Viscosity, Pa*s (Liquid); method: Capillary tube (Ostwald; Ubbelohde) method
Temperature, K	Molality, mol/kg of L-alanine, 3-(1H-imidazol-4-yl)-	Viscosity, Pa*s	uncertainty
298.15	0	.0008985	.000001
298.15	.027	.0009057	.000001
298.15	.0541	.0009193	.000001
298.15	.0815	.0009295	.000001
298.15	.109	.0009399	.000001
298.15	.1367	.0009564	.000001
298.15	.1645	.0009682	.000001
298.15	.1926	.0009796	.000001
298.15	.2207	.0009942	.000001
303.15	0	.0008134	.000001
303.15	.027	.0008264	.000001
303.15	.0541	.0008371	.000001
303.15	.0815	.0008458	.000001
303.15	.109	.000855	.000001
303.15	.1367	.0008667	.000001
303.15	.1645	.0008785	.000001
303.15	.1926	.0008896	.000001
303.15	.2207	.0009007	.000001
308.15	0	.0007473	.000001
308.15	.027	.000755	.000001
308.15	.0541	.0007649	.000001
308.15	.0815	.0007728	.000001
308.15	.109	.0007819	.000001
308.15	.1367	.0007921	.000001
308.15	.1645	.0008038	.000001
308.15	.1926	.0008135	.000001
308.15	.2207	.0008244	.000001
313.15	0	.0006857	.000001
313.15	.027	.0006926	.000001
313.15	.0541	.0007017	.000001
313.15	.0815	.0007101	.000001
313.15	.109	.0007192	.000001
313.15	.1367	.0007275	.000001
313.15	.1645	.0007364	.000001
313.15	.1926	.0007446	.000001
313.15	.2207	.0007548	.000001
318.15	0	.0006322	.000001
318.15	.027	.0006409	.000001
318.15	.0541	.0006479	.000001
318.15	.0815	.0006562	.000001
318.15	.109	.0006626	.000001
318.15	.1367	.0006695	.000001
318.15	.1645	.0006783	.000001
318.15	.1926	.0006851	.000001
318.15	.2207	.0006939	.000001
323.15	0	.0005838	.000001
323.15	.027	.0005911	.000001
323.15	.0541	.0005986	.000001
323.15	.0815	.0006042	.000001
323.15	.109	.0006116	.000001
323.15	.1367	.0006185	.000001
323.15	.1645	.0006258	.000001
323.15	.1926	.000632	.000001
323.15	.2207	.0006406	.000001

System: glutamic acid + potassium chloride + water; phases: Liquid
Fixed: Pressure, kPa = 101
Fixed: Solvent: Amount concentration (molarity), mol/dm3 of potassium chloride = 2
Property: Viscosity, Pa*s (Liquid); method: Capillary tube (Ostwald; Ubbelohde) method
Temperature, K	Molality, mol/kg of glutamic acid	Viscosity, Pa*s	uncertainty
298.15	0	.0009063	.000001
298.15	.0092	.0009089	.000001
298.15	.0184	.0009143	.000001
298.15	.0277	.000917	.000001
298.15	.0369	.0009205	.000001
298.15	.0462	.0009254	.000001
298.15	.0555	.00093	.000001
303.15	0	.0008279	.000001
303.15	.0092	.00083	.000001
303.15	.0184	.0008333	.000001
303.15	.0277	.0008374	.000001
303.15	.0369	.0008401	.000001
303.15	.0462	.0008438	.000001
303.15	.0555	.0008476	.000001
308.15	0	.0007573	.000001
308.15	.0092	.0007592	.000001
308.15	.0184	.0007626	.000001
308.15	.0277	.0007654	.000001
308.15	.0369	.0007675	.000001
308.15	.0462	.0007712	.000001
308.15	.0555	.0007748	.000001
313.15	0	.0006954	.000001
313.15	.0092	.0006963	.000001
313.15	.0184	.0007007	.000001
313.15	.0277	.0007035	.000001
313.15	.0369	.0007062	.000001
313.15	.0462	.0007098	.000001
313.15	.0555	.0007127	.000001
318.15	0	.00064	.000001
318.15	.0092	.0006414	.000001
318.15	.0184	.0006423	.000001
318.15	.0277	.000648	.000001
318.15	.0369	.00065	.000001
318.15	.0462	.000653	.000001
318.15	.0555	.0006559	.000001
323.15	0	.0005914	.000001
323.15	.0092	.0005935	.000001
323.15	.0184	.0005967	.000001
323.15	.0277	.0005993	.000001
323.15	.0369	.0006013	.000001
323.15	.0462	.0006042	.000001
323.15	.0555	.000607	.000001

System: glutamic acid + water + nitric acid potassium salt; phases: Liquid
Fixed: Pressure, kPa = 101
Fixed: Solvent: Amount concentration (molarity), mol/dm3 of nitric acid potassium salt = 2
Property: Viscosity, Pa*s (Liquid); method: Capillary tube (Ostwald; Ubbelohde) method
Temperature, K	Molality, mol/kg of glutamic acid	Viscosity, Pa*s	uncertainty
298.15	0	.0008985	.000001
298.15	.009	.0008989	.000001
298.15	.018	.0009032	.000001
298.15	.027	.0009063	.000001
298.15	.036	.0009087	.000001
298.15	.045	.0009115	.000001
298.15	.0541	.0009156	.000001
303.15	0	.0008134	.000001
303.15	.009	.000819	.000001
303.15	.018	.0008226	.000001
303.15	.027	.0008256	.000001
303.15	.036	.0008293	.000001
303.15	.045	.0008333	.000001
303.15	.0541	.000838	.000001
308.15	0	.0007473	.000001
308.15	.009	.0007503	.000001
308.15	.018	.0007531	.000001
308.15	.027	.0007567	.000001
308.15	.036	.0007597	.000001
308.15	.045	.0007624	.000001
308.15	.0541	.0007676	.000001
313.15	0	.0006857	.000001
313.15	.009	.0006899	.000001
313.15	.018	.0006915	.000001
313.15	.027	.0006938	.000001
313.15	.036	.0006967	.000001
313.15	.045	.0007064	.000001
313.15	.0541	.0007103	.000001
318.15	0	.0006322	.000001
318.15	.009	.0006357	.000001
318.15	.018	.0006372	.000001
318.15	.027	.0006388	.000001
318.15	.036	.0006417	.000001
318.15	.045	.000645	.000001
318.15	.0541	.0006494	.000001
323.15	0	.0005838	.000001
323.15	.009	.0005873	.000001
323.15	.018	.0005893	.000001
323.15	.027	.0005909	.000001
323.15	.036	.0005938	.000001
323.15	.045	.0005976	.000001
323.15	.0541	.0006	.000001

System: L-tryptophan + potassium chloride + water; phases: Liquid
Fixed: Pressure, kPa = 101
Fixed: Solvent: Amount concentration (molarity), mol/dm3 of potassium chloride = 2
Property: Viscosity, Pa*s (Liquid); method: Capillary tube (Ostwald; Ubbelohde) method
Temperature, K	Molality, mol/kg of L-tryptophan	Viscosity, Pa*s	uncertainty
298.15	0	.0009063	.000001
298.15	.009	.000915	.000001
298.15	.0138	.0009155	.000001
298.15	.0184	.0009181	.000001
298.15	.0231	.0009204	.000001
298.15	.0277	.0009239	.000001
298.15	.0323	.0009268	.000001
298.15	.037	.00093	.000001
303.15	0	.0008279	.000001
303.15	.009	.0008307	.000001
303.15	.0138	.0008327	.000001
303.15	.0184	.0008348	.000001
303.15	.0231	.0008382	.000001
303.15	.0277	.0008409	.000001
303.15	.0323	.0008431	.000001
303.15	.037	.0008476	.000001
308.15	0	.0007573	.000001
308.15	.009	.0007604	.000001
308.15	.0138	.0007626	.000001
308.15	.0184	.0007647	.000001
308.15	.0231	.0007674	.000001
308.15	.0277	.00077	.000001
308.15	.0323	.0007721	.000001
308.15	.037	.0007754	.000001
313.15	0	.0006954	.000001
313.15	.009	.0006981	.000001
313.15	.0138	.0007002	.000001
313.15	.0184	.0007022	.000001
313.15	.0231	.0007048	.000001
313.15	.0277	.000708	.000001
313.15	.0323	.0007101	.000001
313.15	.037	.0007121	.000001
318.15	0	.00064	.000001
318.15	.009	.0006445	.000001
318.15	.0138	.0006466	.000001
318.15	.0184	.0006486	.000001
318.15	.0231	.0006505	.000001
318.15	.0277	.0006525	.000001
318.15	.0323	.0006539	.000001
318.15	.037	.0006584	.000001
323.15	0	.0005914	.000001
323.15	.009	.0005953	.000001
323.15	.0138	.0005966	.000001
323.15	.0184	.0005986	.000001
323.15	.0231	.0006005	.000001
323.15	.0277	.0006025	.000001
323.15	.0323	.0006045	.000001
323.15	.037	.0006071	.000001

System: L-tryptophan + water + nitric acid potassium salt; phases: Liquid
Fixed: Pressure, kPa = 101
Fixed: Solvent: Amount concentration (molarity), mol/dm3 of nitric acid potassium salt = 2
Property: Viscosity, Pa*s (Liquid); method: Capillary tube (Ostwald; Ubbelohde) method
Temperature, K	Molality, mol/kg of L-tryptophan	Viscosity, Pa*s	uncertainty
298.15	0	.0008985	.000001
298.15	.009	.000902	.000001
298.15	.0135	.0009029	.000001
298.15	.018	.0009062	.000001
298.15	.0225	.0009085	.000001
298.15	.027	.0009119	.000001
298.15	.0315	.0009153	.000001
298.15	.0361	.0009189	.000001
303.15	0	.0008134	.000001
303.15	.009	.0008201	.000001
303.15	.0135	.0008242	.000001
303.15	.018	.000827	.000001
303.15	.0225	.0008297	.000001
303.15	.027	.0008319	.000001
303.15	.0315	.0008352	.000001
303.15	.0361	.0008381	.000001
308.15	0	.0007473	.000001
308.15	.009	.0007506	.000001
308.15	.0135	.0007541	.000001
308.15	.018	.0007555	.000001
308.15	.0225	.0007582	.000001
308.15	.027	.0007617	.000001
308.15	.0315	.0007644	.000001
308.15	.0361	.0007677	.000001
313.15	0	.0006857	.000001
313.15	.009	.0006897	.000001
313.15	.0135	.0006925	.000001
313.15	.018	.0006939	.000001
313.15	.0225	.0006959	.000001
313.15	.027	.0007006	.000001
313.15	.0315	.0007045	.000001
313.15	.0361	.0007098	.000001
318.15	0	.0006322	.000001
318.15	.009	.0006361	.000001
318.15	.0135	.0006382	.000001
318.15	.018	.0006409	.000001
318.15	.0225	.0006435	.000001
318.15	.027	.0006443	.000001
318.15	.0315	.0006476	.000001
318.15	.0361	.0006515	.000001
323.15	0	.0005838	.000001
323.15	.009	.000587	.000001
323.15	.0135	.0005891	.000001
323.15	.018	.0005917	.000001
323.15	.0225	.0005936	.000001
323.15	.027	.0005957	.000001
323.15	.0315	.0005983	.000001
323.15	.0361	.0006009	.000001

System: glycylglycine + potassium chloride + water; phases: Liquid
Fixed: Pressure, kPa = 101
Fixed: Solvent: Amount concentration (molarity), mol/dm3 of potassium chloride = 2
Property: Viscosity, Pa*s (Liquid); method: Capillary tube (Ostwald; Ubbelohde) method
Temperature, K	Molality, mol/kg of glycylglycine	Viscosity, Pa*s	uncertainty
298.15	0	.0009063	.000001
298.15	.0184	.0009098	.000001
298.15	.0369	.0009163	.000001
298.15	.0554	.0009249	.000001
298.15	.074	.000932	.000001
298.15	.0927	.0009394	.000001
298.15	.1114	.0009462	.000001
298.15	.1302	.0009519	.000001
298.15	.1491	.0009564	.000001
303.15	0	.0008279	.000001
303.15	.0184	.0008308	.000001
303.15	.0369	.0008353	.000001
303.15	.0554	.0008392	.000001
303.15	.074	.0008469	.000001
303.15	.0927	.0008552	.000001
303.15	.1114	.0008614	.000001
303.15	.1302	.0008653	.000001
303.15	.1491	.000871	.000001
308.15	0	.0007573	.000001
308.15	.0184	.0007601	.000001
308.15	.0369	.0007652	.000001
308.15	.0554	.0007733	.000001
308.15	.074	.0007815	.000001
308.15	.0927	.0007852	.000001
308.15	.1114	.0007888	.000001
308.15	.1302	.0007922	.000001
308.15	.1491	.0007958	.000001
313.15	0	.0006954	.000001
313.15	.0184	.0006989	.000001
313.15	.0369	.000702	.000001
313.15	.0554	.0007088	.000001
313.15	.074	.0007106	.000001
313.15	.0927	.000718	.000001
313.15	.1114	.0007227	.000001
313.15	.1302	.0007267	.000001
313.15	.1491	.0007315	.000001
318.15	0	.00064	.000001
318.15	.0184	.0006442	.000001
318.15	.0369	.0006484	.000001
318.15	.0554	.0006532	.000001
318.15	.074	.0006575	.000001
318.15	.0927	.000661	.000001
318.15	.1114	.0006663	.000001
318.15	.1302	.0006696	.000001
318.15	.1491	.0006737	.000001
323.15	0	.0005914	.000001
323.15	.0184	.0005943	.000001
323.15	.0369	.0005985	.000001
323.15	.0554	.0006033	.000001
323.15	.074	.0006099	.000001
323.15	.0927	.000614	.000001
323.15	.1114	.0006167	.000001
323.15	.1302	.0006199	.000001
323.15	.1491	.0006221	.000001

System: glycylglycine + water + nitric acid potassium salt; phases: Liquid
Fixed: Pressure, kPa = 101
Fixed: Solvent: Amount concentration (molarity), mol/dm3 of nitric acid potassium salt = 2
Property: Viscosity, Pa*s (Liquid); method: Capillary tube (Ostwald; Ubbelohde) method
Temperature, K	Molality, mol/kg of glycylglycine	Viscosity, Pa*s	uncertainty
298.15	0	.0008985	.000001
298.15	.018	.0009094	.000001
298.15	.036	.0009111	.000001
298.15	.0541	.0009158	.000001
298.15	.0722	.0009199	.000001
298.15	.0904	.0009299	.000001
298.15	.1087	.0009357	.000001
298.15	.127	.0009413	.000001
298.15	.1454	.000947	.000001
303.15	0	.0008134	.000001
303.15	.018	.0008222	.000001
303.15	.036	.000826	.000001
303.15	.0541	.000832	.000001
303.15	.0722	.000843	.000001
303.15	.0904	.0008476	.000001
303.15	.1087	.0008528	.000001
303.15	.127	.0008581	.000001
303.15	.1454	.0008627	.000001
308.15	0	.0007473	.000001
308.15	.018	.0007515	.000001
308.15	.036	.0007578	.000001
308.15	.0541	.0007638	.000001
308.15	.0722	.0007695	.000001
308.15	.0904	.0007739	.000001
308.15	.1087	.0007797	.000001
308.15	.127	.0007875	.000001
308.15	.1454	.0007923	.000001
313.15	0	.0006857	.000001
313.15	.018	.0006944	.000001
313.15	.036	.000698	.000001
313.15	.0541	.0007021	.000001
313.15	.0722	.0007064	.000001
313.15	.0904	.0007101	.000001
313.15	.1087	.0007158	.000001
313.15	.127	.0007215	.000001
313.15	.1454	.0007263	.000001
318.15	0	.0006322	.000001
318.15	.018	.0006363	.000001
318.15	.036	.0006418	.000001
318.15	.0541	.0006464	.000001
318.15	.0722	.0006506	.000001
318.15	.0904	.0006536	.000001
318.15	.1087	.0006586	.000001
318.15	.127	.0006636	.000001
318.15	.1454	.0006691	.000001
323.15	0	.0005838	.000001
323.15	.018	.000591	.000001
323.15	.036	.0005939	.000001
323.15	.0541	.0005978	.000001
323.15	.0722	.0006012	.000001
323.15	.0904	.0006054	.000001
323.15	.1087	.000609	.000001
323.15	.127	.0006133	.000001
323.15	.1454	.0006176	.000001

System: potassium chloride + water; phases: Liquid
Property: Viscosity, Pa*s (Liquid); method: Capillary tube (Ostwald; Ubbelohde) method
Temperature, K	Pressure, kPa	Amount concentration (molarity), mol/dm3 of potassium chloride	Viscosity, Pa*s	uncertainty
298.15	101	2	.0009063	.000001
303.15	101	2	.0008279	.000001
308.15	101	2	.0007573	.000001
313.15	101	2	.0006954	.000001
318.15	101	2	.00064	.000001
323.15	101	2	.0005914	.000001

System: water + nitric acid potassium salt; phases: Liquid
Property: Viscosity, Pa*s (Liquid); method: Capillary tube (Ostwald; Ubbelohde) method
Temperature, K	Pressure, kPa	Amount concentration (molarity), mol/dm3 of nitric acid potassium salt	Viscosity, Pa*s	uncertainty
298.15	101	2	.0008985	.000001
303.15	101	2	.0008134	.000001
308.15	101	2	.0007473	.000001
313.15	101	2	.0006857	.000001
318.15	101	2	.0006322	.000001
323.15	101	2	.0005838	.000001
