Measured thermophysical data. Density and Viscosity Measurements of Dimethoxymethane and 1,2-Dimethoxyethane from 243 K to 373 K up to 20 MPa
Source: Int. J. Thermophys., 2008
Compound 1: dimethoxymethane, C3H8O2
Compound 2: 1,2-dimethoxyethane, C4H10O2

System: dimethoxymethane; phases: Liquid
Property: Mass density, kg/m3 (Liquid); method: vibrating wire
Temperature, K	Pressure, kPa	Mass density, kg/m3	uncertainty
243.15	100	917.773	1.835546
243.15	4400	921.19	1.84238
243.15	9420	924.889	1.849778
243.15	14450	928.455	1.85691
243.15	19440	931.885	1.86377
253.15	100	905.693	1.811386
253.15	4420	909.439	1.818878
253.15	9410	913.399	1.826798
253.15	14450	917.473	1.834946
253.15	19440	921.171	1.842342
263.15	100	893.705	1.78741
263.15	4440	897.611	1.795222
263.15	9440	901.958	1.803916
263.15	14470	906.179	1.812358
263.15	19470	910.144	1.820288
273.15	100	881.433	1.762866
273.15	4440	885.755	1.77151
273.15	9440	890.38	1.78076
273.15	14480	894.826	1.789652
273.15	19540	899.081	1.798162
283.15	100	869.282	1.738564
283.15	4450	873.902	1.747804
283.15	9430	878.977	1.757954
283.15	14490	883.736	1.767472
283.15	19550	888.33	1.77666
293.15	100	857.043	1.714086
293.15	4410	862.006	1.724012
293.15	9460	867.484	1.734968
293.15	14490	872.625	1.74525
293.15	19550	877.53	1.75506
303.15	100	844.252	1.688504
303.15	4450	849.702	1.699404
303.15	9450	855.591	1.711182
303.15	14490	861.24	1.72248
303.15	19550	866.565	1.73313
313.15	160	831.685	1.66337
313.15	4440	837.579	1.675158
313.15	9420	843.933	1.687866
313.15	14450	849.923	1.699846
313.15	19440	855.5	1.711
323.15	190	818.682	1.637364
323.15	4390	824.99	1.64998
323.15	9420	832.095	1.66419
323.15	14460	838.549	1.677098
323.15	19490	844.585	1.68917
333.15	210	805.334	1.610668
333.15	4390	812.279	1.624558
333.15	9410	819.852	1.639704
333.15	14450	826.872	1.653744
333.15	19450	833.322	1.666644
343.15	280	791.705	1.58341
343.15	4430	799.263	1.598526
343.15	9430	807.432	1.614864
343.15	14460	815.084	1.630168
343.15	19460	822.037	1.644074
353.15	360	777.688	1.555376
353.15	4370	785.794	1.571588
353.15	9400	794.895	1.58979
353.15	14450	803.147	1.606294
353.15	19430	810.634	1.621268
363.15	430	763.12	1.52624
363.15	4400	772.066	1.544132
363.15	9410	782.127	1.564254
363.15	14450	791.118	1.582236
363.15	19460	799.153	1.598306
373.15	550	748.032	1.496064
373.15	4370	757.736	1.515472
373.15	9400	768.901	1.537802
373.15	14450	778.77	1.55754
373.15	19480	787.494	1.574988

System: dimethoxymethane; phases: Liquid
Property: Viscosity, Pa*s (Liquid); method: Vibrating wire viscometry
Temperature, K	Pressure, kPa	Viscosity, Pa*s	uncertainty
243.15	100	.0006298	.000012596
243.15	4400	.000651	.00001302
243.15	9420	.0006752	.000013504
243.15	14450	.0007003	.000014006
243.15	19440	.0007258	.000014516
253.15	100	.0005389	.000010778
253.15	4420	.000556	.00001112
253.15	9410	.0005769	.000011538
253.15	14450	.0005975	.00001195
253.15	19440	.0006191	.000012382
263.15	100	.0004697	.000009394
263.15	4440	.0004857	.000009714
263.15	9440	.0005039	.000010078
263.15	14470	.0005215	.00001043
263.15	19470	.0005406	.000010812
273.15	100	.0004145	.00000829
273.15	4440	.0004285	.00000857
273.15	9440	.0004446	.000008892
273.15	14480	.0004615	.00000923
273.15	19540	.0004783	.000009566
283.15	100	.0003685	.00000737
283.15	4450	.0003818	.000007636
283.15	9430	.0003964	.000007928
283.15	14490	.0004114	.000008228
283.15	19550	.0004265	.00000853
293.15	100	.0003303	.000006606
293.15	4410	.000342	.00000684
293.15	9460	.0003559	.000007118
293.15	14490	.0003692	.000007384
293.15	19550	.0003832	.000007664
303.15	100	.0002963	.000005926
303.15	4450	.0003076	.000006152
303.15	9450	.0003199	.000006398
303.15	14490	.0003323	.000006646
303.15	19550	.000345	.0000069
313.15	160	.0002682	.000005364
313.15	4440	.0002785	.00000557
313.15	9420	.0002905	.00000581
313.15	14450	.0003022	.000006044
313.15	19440	.0003137	.000006274
323.15	190	.0002436	.000004872
323.15	4390	.0002532	.000005064
323.15	9420	.0002644	.000005288
323.15	14460	.0002758	.000005516
323.15	19490	.0002866	.000005732
333.15	210	.0002202	.000004404
333.15	4390	.000229	.00000458
333.15	9410	.0002401	.000004802
333.15	14450	.0002504	.000005008
333.15	19450	.000261	.00000522
343.15	280	.0002009	.000004018
343.15	4430	.0002096	.000004192
343.15	9430	.0002203	.000004406
343.15	14460	.0002301	.000004602
343.15	19460	.00024	.0000048
353.15	360	.0001837	.000003674
353.15	4370	.0001922	.000003844
353.15	9400	.0002024	.000004048
353.15	14450	.0002123	.000004246
353.15	19430	.0002217	.000004434
363.15	430	.0001688	.000003376
363.15	4400	.0001767	.000003534
363.15	9410	.0001868	.000003736
363.15	14450	.0001963	.000003926
363.15	19460	.0002059	.000004118
373.15	550	.0001551	.000003102
373.15	4370	.0001628	.000003256
373.15	9400	.0001728	.000003456
373.15	14450	.0001822	.000003644
373.15	19480	.0001914	.000003828

System: 1,2-dimethoxyethane; phases: Liquid
Property: Mass density, kg/m3 (Liquid); method: vibrating wire
Temperature, K	Pressure, kPa	Mass density, kg/m3	uncertainty
243.15	100	919.667	1.839334
243.15	4540	923.045	1.84609
243.15	9560	926.586	1.853172
243.15	14590	928.901	1.857802
243.15	19470	931.879	1.863758
253.15	100	909.614	1.819228
253.15	4550	912.595	1.82519
253.15	9550	915.73	1.83146
253.15	14450	917.844	1.835688
253.15	19430	921.699	1.843398
263.15	100	899.206	1.798412
263.15	4560	901.757	1.803514
263.15	9590	904.482	1.808964
263.15	14590	908.179	1.816358
263.15	19460	911.986	1.823972
273.15	100	887.607	1.775214
273.15	4560	890.738	1.781476
273.15	9590	894.412	1.788824
273.15	14550	898.792	1.797584
273.15	19480	903.248	1.806496
283.15	100	876.889	1.753778
283.15	4550	880.455	1.76091
283.15	9570	884.621	1.769242
283.15	14460	889.18	1.77836
283.15	19450	892.89	1.78578
293.15	100	866.528	1.733056
293.15	4530	869.991	1.739982
293.15	9560	875.037	1.750074
293.15	14460	879.707	1.759414
293.15	19450	883.646	1.767292
303.15	100	855.111	1.710222
303.15	4540	859.667	1.719334
303.15	9500	865.15	1.7303
303.15	14440	869.454	1.738908
303.15	19440	873.398	1.746796
313.15	100	843.765	1.68753
313.15	4540	848.633	1.697266
313.15	9500	854.082	1.708164
313.15	14440	858.578	1.717156
313.15	19420	863.033	1.726066
323.15	100	832.929	1.665858
323.15	4560	838.334	1.676668
323.15	9530	843.798	1.687596
323.15	14450	848.464	1.696928
323.15	19460	852.959	1.705918
333.15	100	822.133	1.644266
333.15	4550	827.195	1.65439
333.15	9570	833.307	1.666614
333.15	14460	837.525	1.67505
333.15	19430	842.805	1.68561
343.15	100	809.48	1.61896
343.15	4540	815.487	1.630974
343.15	9560	821.858	1.643716
343.15	14440	827.359	1.654718
343.15	19420	832.794	1.665588
353.15	360	798.071	1.596142
353.15	4560	803.982	1.607964
353.15	9570	810.723	1.621446
353.15	14440	817.205	1.63441
353.15	19420	822.843	1.645686
363.15	160	785.42	1.57084
363.15	4560	792.463	1.584926
363.15	9570	799.914	1.599828
363.15	14440	806.21	1.61242
363.15	19420	812.462	1.624924
373.15	200	772.627	1.545254
373.15	4560	780.565	1.56113
373.15	9580	788.637	1.577274
373.15	14440	795.752	1.591504
373.15	19420	802.7	1.6054

System: 1,2-dimethoxyethane; phases: Liquid
Property: Viscosity, Pa*s (Liquid); method: Vibrating wire viscometry
Temperature, K	Pressure, kPa	Viscosity, Pa*s	uncertainty
243.15	100	.0008856	.000017712
243.15	4540	.0009166	.000018332
243.15	9560	.0009502	.000019004
243.15	14590	.0009855	.00001971
243.15	19470	.0010166	.000020332
253.15	100	.0007464	.000014928
253.15	4550	.0007729	.000015458
253.15	9550	.0007995	.00001599
253.15	14450	.0008296	.000016592
253.15	19430	.000858	.00001716
263.15	100	.000642	.00001284
263.15	4560	.0006618	.000013236
263.15	9590	.0006849	.000013698
263.15	14590	.0007095	.00001419
263.15	19460	.0007337	.000014674
273.15	100	.0005585	.00001117
273.15	4560	.0005759	.000011518
273.15	9590	.0005961	.000011922
273.15	14550	.0006173	.000012346
273.15	19480	.0006392	.000012784
283.15	100	.0004904	.000009808
283.15	4550	.0005056	.000010112
283.15	9570	.000525	.0000105
283.15	14460	.0005458	.000010916
283.15	19450	.0005619	.000011238
293.15	100	.0004341	.000008682
293.15	4530	.0004492	.000008984
293.15	9560	.0004673	.000009346
293.15	14460	.000485	.0000097
293.15	19450	.0005011	.000010022
303.15	100	.0003896	.000007792
303.15	4540	.0004031	.000008062
303.15	9500	.0004197	.000008394
303.15	14440	.0004334	.000008668
303.15	19440	.0004494	.000008988
313.15	100	.0003512	.000007024
313.15	4540	.0003641	.000007282
313.15	9500	.0003784	.000007568
313.15	14440	.0003922	.000007844
313.15	19420	.0004055	.00000811
323.15	100	.0003189	.000006378
323.15	4560	.0003303	.000006606
323.15	9530	.0003433	.000006866
323.15	14450	.0003562	.000007124
323.15	19460	.0003693	.000007386
333.15	100	.0002903	.000005806
333.15	4550	.0003018	.000006036
333.15	9570	.0003129	.000006258
333.15	14460	.0003256	.000006512
333.15	19430	.0003372	.000006744
343.15	100	.0002653	.000005306
343.15	4540	.0002754	.000005508
343.15	9560	.0002868	.000005736
343.15	14440	.0002985	.00000597
343.15	19420	.0003093	.000006186
353.15	360	.0002437	.000004874
353.15	4560	.0002539	.000005078
353.15	9570	.0002642	.000005284
353.15	14440	.0002754	.000005508
353.15	19420	.0002858	.000005716
363.15	160	.0002233	.000004466
363.15	4560	.000233	.00000466
363.15	9570	.0002438	.000004876
363.15	14440	.0002557	.000005114
363.15	19420	.0002641	.000005282
373.15	200	.0002059	.000004118
373.15	4560	.0002157	.000004314
373.15	9580	.0002263	.000004526
373.15	14440	.0002355	.00000471
373.15	19420	.0002457	.000004914
