Measured thermophysical data. Thermal Conductivity of Liquid Dimethoxyethane from 243 to 353K at Pressures up to 30 MPa
Source: Int. J. Thermophys., 2009, 10.1007/s10765-008-0549-z
Compound 1: toluene, C7H8, purity 99.5%
Compound 2: 1,2-dimethoxyethane, C4H10O2, purity 99.9%

System: toluene; phases: Liquid, Gas
Property: Thermal conductivity, W/m/K (Liquid); method: Hot wire method
Temperature, K	Thermal conductivity, W/m/K	uncertainty
274.65	.1387	.002774
275.4	.1382	.002764
275.95	.1384	.002768
276.31	.138	.00276
287.33	.1345	.00269
288.72	.1336	.002672
289.65	.1335	.00267
297.45	.1318	.002636
298.6	.1313	.002626
300.43	.1303	.002606
294.45	.1318	.002636
294.69	.1318	.002636
295.08	.1321	.002642
295.47	.1314	.002628
295.79	.132	.00264
307.66	.1287	.002574
308.62	.1283	.002566
310.22	.1274	.002548
317.94	.1251	.002502
319.32	.1245	.00249
319.96	.1245	.00249
314.69	.1261	.002522
314.74	.1264	.002528
315.55	.1253	.002506
315.85	.1254	.002508
316.7	.1251	.002502
327.65	.1225	.00245
329.5	.1214	.002428
330.77	.1209	.002418
338.39	.1188	.002376
339.77	.1181	.002362
340.62	.1181	.002362
355.63	.114	.00228
355.95	.114	.00228
357.02	.1137	.002274
375.26	.1086	.002172
375.71	.1087	.002174
375.26	.1086	.002172

System: 1,2-dimethoxyethane; phases: Liquid
Property: Thermal conductivity, W/m/K (Liquid); method: Hot wire method
Temperature, K	Pressure, kPa	Thermal conductivity, W/m/K	uncertainty
245.46	104.6	.1648	.003296
246.49	105.9	.165	.0033
247.52	103.3	.1647	.003294
246.06	5008.2	.1665	.00333
246.52	5028.5	.1666	.003332
246.79	5010	.1662	.003324
245.95	9806.6	.1669	.003338
246.69	10018	.1683	.003366
246.75	10004.9	.1682	.003364
246.06	20070.2	.1711	.003422
315.17	10013.2	.1447	.002894
315.42	10011.9	.1445	.00289
314.83	20003.3	.1491	.002982
314.95	20015.5	.1476	.002952
315.3	20008.5	.1484	.002968
315.31	20000.8	.1483	.002966
314.79	30008.3	.1522	.003044
315.14	30009.8	.1529	.003058
315.26	30007.8	.1519	.003038
334.58	102.1	.132	.00264
334.69	90	.132	.00264
335.06	101.6	.1322	.002644
335.53	105.6	.1314	.002628
336.14	105.6	.1319	.002638
334.58	5005.9	.1342	.002684
334.65	5011.8	.1347	.002694
334.98	5008.9	.1344	.002688
335.39	5011.5	.1347	.002694
335.96	5018	.1343	.002686
334.53	10005.5	.1361	.002722
334.76	10004.2	.1366	.002732
334.94	10015.2	.1373	.002746
335.31	10008.5	.1374	.002748
335.59	10014.8	.1366	.002732
246.24	20007	.1706	.003412
245.69	30045	.1742	.003484
245.96	30102.8	.1746	.003492
256.02	102.5	.1606	.003212
256.95	102.5	.161	.00322
257.58	102.3	.1607	.003214
256.21	5070.2	.1623	.003246
256.9	5065.5	.1625	.00325
257.48	5064.5	.1625	.00325
256.1	10039.7	.1643	.003286
256.83	10040.4	.1642	.003284
257.62	10048.1	.1643	.003286
255.91	20016	.1675	.00335
256.81	20002.5	.1679	.003358
257.56	20021.5	.1674	.003348
256.02	30007.3	.1706	.003412
256.75	30013.5	.1707	.003414
257.66	30002	.1708	.003416
266.41	100.9	.158	.00316
266.26	101.3	.158	.00316
267.5	101.1	.1578	.003156
266.18	5017.9	.1601	.003202
266.58	5037.6	.1598	.003196
267.84	5027	.1598	.003196
266.32	10010.8	.1618	.003236
266.15	10002.7	.1617	.003234
267.37	10020.8	.1617	.003234
266.26	20003	.1654	.003308
266.87	20013	.165	.0033
267.35	20002.8	.1653	.003306
266.19	30008.8	.1688	.003376
266.95	30000.5	.1684	.003368
267.11	30012.8	.1683	.003366
276.34	101.8	.1547	.003094
276.49	100.9	.1543	.003086
278.62	101.1	.1539	.003078
275.72	5003.3	.1567	.003134
276.94	5006	.1567	.003134
277.55	5005.5	.1565	.00313
275.68	10023.8	.1585	.00317
277.29	10005.3	.1584	.003168
277.95	10000.5	.1585	.00317
276.21	20023.8	.1624	.003248
276.52	20015	.1623	.003246
277.53	20015	.1623	.003246
276.45	30012	.1657	.003314
277.11	30008.3	.1654	.003308
277.31	30011.5	.1653	.003306
286.23	101.5	.1512	.003024
287.06	101.3	.1509	.003018
288.62	100.9	.1504	.003008
286.18	5012.4	.1531	.003062
287.46	5010.5	.153	.00306
288.65	5009.1	.1525	.00305
285.8	10010.1	.1551	.003102
287.28	10001.1	.1549	.003098
288.14	10002.4	.1545	.00309
286.51	20013.3	.159	.00318
286.8	20011	.159	.00318
287.68	20035	.1586	.003172
286.4	30001	.1626	.003252
286.67	30008.6	.1625	.00325
287.07	30006.3	.1621	.003242
294.68	106.8	.1466	.002932
294.75	104.2	.1463	.002926
295.38	104.3	.1474	.002948
295.36	101.9	.1467	.002934
294.83	5021.1	.15	.003
294.98	5020.1	.1495	.00299
295.07	5014	.149	.00298
296	5027.1	.1498	.002996
294.64	10026.9	.1527	.003054
294.52	10025.6	.1516	.003032
294.85	10037.1	.1514	.003028
295.37	10024.3	.1515	.00303
295.83	10044.5	.1522	.003044
294.53	20008.5	.1566	.003132
294.68	20035.5	.1566	.003132
295.24	20010.3	.1569	.003138
295.11	20026.3	.1557	.003114
295.36	20005.5	.1558	.003116
294.55	30011.5	.1589	.003178
294.89	30004.5	.1609	.003218
295	30018	.1595	.00319
295.32	30006	.16	.0032
295.28	30016	.1598	.003196
314.6	104.5	.1394	.002788
314.65	105.6	.1386	.002772
314.9	107.1	.1402	.002804
315.27	105.4	.1395	.00279
315.51	100.6	.1391	.002782
314.84	5010.3	.1415	.00283
315.23	5018.6	.1424	.002848
315.46	5010.3	.1419	.002838
314.87	10003.1	.1443	.002886
315.06	10016.7	.144	.00288
315.17	10013.2	.1447	.002894
315.42	10011.9	.1445	.00289
314.83	20003.3	.1491	.002982
314.95	20015.5	.1476	.002952
315.3	20008.5	.1484	.002968
315.31	20000.8	.1483	.002966
314.79	30008.3	.1522	.003044
315.14	30009.8	.1529	.003058
315.26	30007.8	.1519	.003038
334.58	102.1	.132	.00264
334.69	90	.132	.00264
335.06	101.6	.1322	.002644
335.53	105.6	.1314	.002628
336.14	105.6	.1319	.002638
334.58	5005.9	.1342	.002684
334.65	5011.8	.1347	.002694
334.98	5008.9	.1344	.002688
335.39	5011.5	.1347	.002694
335.96	5018	.1343	.002686
334.53	10005.5	.1361	.002722
334.76	10004.2	.1366	.002732
334.94	10015.2	.1373	.002746
335.31	10008.5	.1374	.002748
335.59	10014.8	.1366	.002732
