Measured thermophysical data. Viscosity Measurements of Ethyl Fluoride (R161) from 243 K to 363 K at Pressures up to 30 MPa
Source: Int. J. Thermophys., 2015, 10.1007/s10765-013-1546-4
Compound 1: fluoroethane, C2H5F, purity 99.74%

System: fluoroethane; phases: Liquid, Gas
Property: Viscosity, Pa*s (Liquid); method: Vibrating wire viscometry
Temperature, K	Viscosity, Pa*s	uncertainty
243.17	.0002238	
253.16	.0001961	
263.17	.000175	
273.15	.0001565	
283.15	.0001395	
293.15	.0001247	
303.15	.0001122	
313.14	.0001003	
323.16	.0000902	
333.16	.0000803	
343.16	.0000708	
353.16	.0000614	
363.16	.0000514	

System: fluoroethane; phases: Liquid, Gas
Property: Vapor or sublimation pressure, kPa (Liquid); method: Closed cell (Static) method
Temperature, K	Vapor or sublimation pressure, kPa	uncertainty
243.17	140	
253.16	210	
263.17	310	
273.15	440	
283.15	600	
293.15	810	
303.15	1060	
313.14	1360	
323.16	1730	
333.16	2170	
343.16	2680	
353.16	3280	
363.16	3990	

System: fluoroethane; phases: Liquid
Property: Viscosity, Pa*s (Liquid); method: Vibrating wire viscometry
Temperature, K	Pressure, kPa	Viscosity, Pa*s	uncertainty
243.17	5000	.000232	
243.17	10000	.0002433	
243.17	15000	.0002538	
243.17	20000	.0002643	
243.17	25000	.0002748	
243.17	30000	.000285	
253.16	5000	.0002037	
253.16	10000	.0002128	
253.16	15000	.0002214	
253.16	20000	.0002315	
253.16	25000	.0002396	
253.16	30000	.0002489	
263.17	5000	.0001834	
263.17	10000	.0001926	
263.17	15000	.0002012	
263.17	20000	.0002097	
263.17	25000	.0002177	
263.17	30000	.0002262	
273.15	5000	.0001642	
273.15	10000	.0001729	
273.15	15000	.0001812	
273.15	20000	.0001894	
273.15	25000	.0001971	
273.15	30000	.000205	
283.15	5000	.000147	
283.15	10000	.0001553	
283.15	15000	.0001637	
283.15	20000	.0001713	
283.15	25000	.0001794	
283.15	30000	.0001868	
293.15	5000	.0001322	
293.15	10000	.0001406	
293.15	15000	.0001489	
293.15	20000	.0001566	
293.15	25000	.0001642	
293.15	30000	.0001717	
303.15	5000	.0001196	
303.15	10000	.0001279	
303.15	15000	.000136	
303.15	20000	.0001437	
303.15	25000	.0001512	
303.15	30000	.0001584	
313.14	5000	.0001078	
313.14	10000	.0001164	
313.14	15000	.0001242	
313.14	20000	.000132	
313.14	25000	.0001393	
313.14	30000	.0001468	
323.16	5000	.0000968	
323.16	10000	.0001054	
323.16	15000	.0001134	
323.16	20000	.0001209	
323.16	25000	.0001282	
323.16	30000	.0001356	
333.16	5000	.0000866	
333.16	10000	.0000958	
333.16	15000	.0001039	
333.16	20000	.0001113	
333.16	25000	.0001181	
333.16	30000	.0001247	
343.16	5000	.0000766	
343.16	10000	.0000866	
343.16	15000	.0000953	
343.16	20000	.0001027	
343.16	25000	.0001094	
343.16	30000	.0001159	
353.16	5000	.0000666	
353.16	10000	.0000782	
353.16	15000	.0000871	
353.16	20000	.0000946	
353.16	25000	.0001014	
353.16	30000	.000108	
363.16	5000	.0000562	
363.16	10000	.0000699	
363.16	15000	.0000796	
363.16	20000	.0000873	
363.16	25000	.0000943	
363.16	30000	.0001005	
