Measured thermophysical data. The Experimental Study of Temperature Dependence of Binary Diffusion Coefficients of Gases at Different Pressures
Source: Int. J. Thermophys., 2013, 10.1007/s10765-013-1539-3
Compound 1: hydrogen, H2
Compound 2: nitrogen, N2
Compound 3: carbon monoxide, CO
Compound 4: methane, CH4
Compound 5: ethane, C2H6
Compound 6: propane, C3H8

System: hydrogen + nitrogen; phases: Gas
Fixed: Mass fraction of hydrogen = .5
Property: Binary diffusion coefficient, m2/s (Gas); method: Steady Flow
Pressure, kPa	Temperature, K	Binary diffusion coefficient, m2/s	uncertainty
100	250	0.0000586	.000001172
100	300	0.00008	.0000016
100	350	0.000104	.00000208
100	400	0.000131	.00000262
100	500	0.000192	.00000384
100	600	0.000261	.00000522
100	700	0.00034	.0000068
100	800	0.000427	.00000854
100	900	0.000523	.00001046
4000	250	0.00000152	.0000000304
4000	300	0.00000204	.0000000408
4000	350	0.00000268	.0000000536
4000	400	0.00000337	.0000000674
4000	500	0.00000495	.000000099
4000	600	0.0000068	.000000136
4000	700	0.0000088	.000000176
4000	800	0.000011	.00000022
4000	900	0.0000134	.000000268
7000	250	0.00000088	.0000000176
7000	300	0.00000124	.0000000248
7000	350	0.00000163	.0000000326
7000	400	0.00000205	.000000041
7000	500	0.00000301	.0000000602
7000	600	0.0000041	.000000082
7000	700	0.00000532	.0000001064
7000	800	0.00000665	.000000133
7000	900	0.00000811	.0000001622
10000	250	0.0000006	.000000012
10000	300	0.00000085	.000000017
10000	350	0.00000113	.0000000226
10000	400	0.00000141	.0000000282
10000	500	0.00000207	.0000000414
10000	600	0.00000282	.0000000564
10000	700	0.00000365	.000000073
10000	800	0.00000456	.0000000912
10000	900	0.00000555	.000000111
15000	250	0.000000421	.00000000842
15000	300	0.0000006	.000000012
15000	350	0.00000079	.0000000158
15000	400	0.00000098	.0000000196
15000	500	0.00000145	.000000029
15000	600	0.00000196	.0000000392
15000	700	0.00000251	.0000000502
15000	800	0.00000315	.000000063
15000	900	0.0000038	.000000076

System: carbon monoxide + hydrogen; phases: Gas
Fixed: Mass fraction of hydrogen = .5
Property: Binary diffusion coefficient, m2/s (Gas); method: Steady Flow
Pressure, kPa	Temperature, K	Binary diffusion coefficient, m2/s	uncertainty
100	250	0.000056	.00000112
100	300	0.000077	.00000154
100	350	0.000101	.00000202
100	400	0.000127	.00000254
100	500	0.000188	.00000376
100	600	0.000258	.00000516
100	700	0.000337	.00000674
100	800	0.000425	.0000085
100	900	0.000522	.00001044
4000	250	0.00000132	.0000000264
4000	300	0.00000196	.0000000392
4000	350	0.00000258	.0000000516
4000	400	0.00000328	.0000000656
4000	500	0.00000484	.0000000968
4000	600	0.0000066	.000000132
4000	700	0.0000087	.000000174
4000	800	0.0000109	.000000218
4000	900	0.0000134	.000000268
7000	250	0.0000008	.000000016
7000	300	0.00000116	.0000000232
7000	350	0.00000152	.0000000304
7000	400	0.00000196	.0000000392
7000	500	0.00000289	.0000000578
7000	600	0.00000397	.0000000794
7000	700	0.00000514	.0000001028
7000	800	0.0000065	.00000013
7000	900	0.0000079	.000000158
10000	250	0.00000056	.0000000112
10000	300	0.00000081	.0000000162
10000	350	0.00000109	.0000000218
10000	400	0.00000138	.0000000276
10000	500	0.00000203	.0000000406
10000	600	0.00000279	.0000000558
10000	700	0.00000363	.0000000726
10000	800	0.00000455	.000000091
10000	900	0.00000558	.0000001116
15000	250	0.0000004	.000000008
15000	300	0.00000056	.0000000112
15000	350	0.00000074	.0000000148
15000	400	0.00000094	.0000000188
15000	500	0.00000142	.0000000284
15000	600	0.00000196	.0000000392
15000	700	0.00000263	.0000000526
15000	800	0.00000335	.000000067
15000	900	0.0000042	.000000084

System: methane + hydrogen; phases: Gas
Fixed: Mass fraction of hydrogen = .5
Property: Binary diffusion coefficient, m2/s (Gas); method: Steady Flow
Pressure, kPa	Temperature, K	Binary diffusion coefficient, m2/s	uncertainty
100	250	0.000053	.00000106
100	280	0.000066	.00000132
100	320	0.000083	.00000166
100	400	0.000124	.00000248
100	480	0.000173	.00000346
100	560	0.000227	.00000454
100	640	0.00029	.0000058
100	720	0.00036	.0000072
100	800	0.000434	.00000868
100	900	0.00054	.0000108
4000	250	0.00000132	.0000000264
4000	280	0.00000184	.0000000368
4000	320	0.00000231	.0000000462
4000	400	0.00000362	.0000000724
4000	480	0.0000051	.000000102
4000	560	0.0000067	.000000134
4000	640	0.0000084	.000000168
4000	720	0.0000106	.000000212
4000	800	0.0000129	.000000258
4000	900	0.0000159	.000000318
7000	250	0.00000063	.0000000126
7000	280	0.00000085	.000000017
7000	320	0.00000117	.0000000234
7000	400	0.00000182	.0000000364
7000	480	0.00000252	.0000000504
7000	560	0.00000343	.0000000686
7000	640	0.00000435	.000000087
7000	720	0.0000054	.000000108
7000	800	0.0000065	.00000013
7000	900	0.0000081	.000000162
10000	250	0.00000038	.0000000076
10000	280	0.00000054	.0000000108
10000	320	0.00000075	.000000015
10000	400	0.0000012	.000000024
10000	480	0.00000172	.0000000344
10000	560	0.0000023	.000000046
10000	640	0.00000293	.0000000586
10000	720	0.00000361	.0000000722
10000	800	0.00000441	.0000000882
10000	900	0.00000542	.0000001084
15000	250	0.000000291	.00000000582
15000	280	0.000000405	.0000000081
15000	320	0.00000058	.0000000116
15000	400	0.00000095	.000000019
15000	480	0.00000136	.0000000272
15000	560	0.00000179	.0000000358
15000	640	0.00000228	.0000000456
15000	720	0.00000281	.0000000562
15000	800	0.00000337	.0000000674
15000	900	0.00000411	.0000000822

System: ethane + hydrogen; phases: Gas
Fixed: Mass fraction of hydrogen = .5
Property: Binary diffusion coefficient, m2/s (Gas); method: Steady Flow
Pressure, kPa	Temperature, K	Binary diffusion coefficient, m2/s	uncertainty
100	250	0.0000429	.000000858
100	280	0.000052	.00000104
100	320	0.000065	.0000013
100	400	0.000095	.0000019
100	480	0.000131	.00000262
100	560	0.00017	.0000034
100	640	0.000212	.00000424
100	720	0.000261	.00000522
100	800	0.000313	.00000626
100	900	0.000382	.00000764
3500	320	0.00000146	.0000000292
3500	400	0.00000253	.0000000506
3500	480	0.0000036	.000000072
3500	560	0.00000481	.0000000962
3500	640	0.0000062	.000000124
3500	720	0.0000076	.000000152
3500	800	0.0000091	.000000182
3500	900	0.000011	.00000022
7000	320	0.00000033	.0000000066
7000	400	0.00000115	.000000023
7000	480	0.00000175	.000000035
7000	560	0.0000024	.000000048
7000	640	0.0000031	.000000062
7000	720	0.00000381	.0000000762
7000	800	0.00000461	.0000000922
7000	900	0.00000559	.0000001118
10500	320	0.00000024	.0000000048
10500	400	0.00000068	.0000000136
10500	480	0.00000113	.0000000226
10500	560	0.00000158	.0000000316
10500	640	0.00000204	.0000000408
10500	720	0.00000252	.0000000504
10500	800	0.000003	.00000006
10500	900	0.00000372	.0000000744
14000	320	0.000000221	.00000000442
14000	400	0.0000005	.00000001
14000	480	0.00000086	.0000000172
14000	560	0.0000012	.000000024
14000	640	0.00000158	.0000000316
14000	720	0.00000194	.0000000388
14000	800	0.00000233	.0000000466
14000	900	0.00000283	.0000000566

System: propane + hydrogen; phases: Gas
Fixed: Mass fraction of hydrogen = .5
Property: Binary diffusion coefficient, m2/s (Gas); method: Steady Flow
Pressure, kPa	Temperature, K	Binary diffusion coefficient, m2/s	uncertainty
100	250	0.0000328	.000000656
100	280	0.0000401	.000000802
100	320	0.00005	.000001
100	400	0.000074	.00000148
100	480	0.000101	.00000202
100	560	0.000131	.00000262
100	640	0.000164	.00000328
100	720	0.0002	.000004
100	800	0.00024	.0000048
100	900	0.000292	.00000584
3500	400	0.0000016	.000000032
3500	480	0.00000258	.0000000516
3500	560	0.00000356	.0000000712
3500	640	0.00000457	.0000000914
3500	720	0.00000563	.0000001126
3500	800	0.0000068	.000000136
3500	900	0.0000083	.000000166
7000	400	0.00000045	.000000009
7000	480	0.00000114	.0000000228
7000	560	0.0000017	.000000034
7000	640	0.00000221	.0000000442
7000	720	0.00000278	.0000000556
7000	800	0.00000337	.0000000674
7000	900	0.00000424	.0000000848
10500	400	0.000000298	.00000000596
10500	480	0.00000068	.0000000136
10500	560	0.00000107	.0000000214
10500	640	0.00000147	.0000000294
10500	720	0.00000183	.0000000366
10500	800	0.00000223	.0000000446
10500	900	0.00000283	.0000000566
14000	400	0.000000272	.00000000544
14000	480	0.00000049	.0000000098
14000	560	0.000000789	.00000001578
14000	640	0.00000108	.0000000216
14000	720	0.00000137	.0000000274
14000	800	0.00000165	.000000033
14000	900	0.00000204	.0000000408
