Measured thermophysical data. Investigation on Phase Transitions and Thermodynamic Properties of 1-Dodecylamine Hydrochloride (C12H25NH3Cl)(s)
Source: Int. J. Thermophys., 2009, 10.1007/s10765-009-0675-2
Compound 1: dodecylamine hydrochloride, C12H27N

System: dodecylamine hydrochloride; phases: Crystal 3, Crystal 2, Gas
Property: Triple point temperature, K (Crystal 3); method: Adiabatic calorimetry
Triple point temperature, K	uncertainty
330.78	.43

System: dodecylamine hydrochloride; phases: Crystal 2, Crystal 1, Gas
Property: Triple point temperature, K (Crystal 2); method: Adiabatic calorimetry
Triple point temperature, K	uncertainty
345.09	.16

System: dodecylamine hydrochloride; phases: Crystal 3, Crystal 2, Gas
Property: Molar enthalpy of transition or fusion, kJ/mol (Crystal 3); method: Adiabatic calorimetry
Molar enthalpy of transition or fusion, kJ/mol	uncertainty
25.718	.082

System: dodecylamine hydrochloride; phases: Crystal 2, Crystal 1, Gas
Property: Molar enthalpy of transition or fusion, kJ/mol (Crystal 2); method: Adiabatic calorimetry
Molar enthalpy of transition or fusion, kJ/mol	uncertainty
5.049	.055

System: dodecylamine hydrochloride; phases: Crystal 1, Liquid, Air at 1 atmosphere
Property: Normal melting temperature, K (Crystal 1); method: Visual observation
Normal melting temperature, K	uncertainty
455.4	

System: dodecylamine hydrochloride; phases: Crystal 1, Liquid, Air at 1 atmosphere
Property: Molar enthalpy of transition or fusion, kJ/mol (Crystal 1); method: DSC/DTA
Molar enthalpy of transition or fusion, kJ/mol	uncertainty
7.83	

System: dodecylamine hydrochloride; phases: Crystal 1
Fixed: Pressure, kPa = 101.325
Property: Molar heat capacity at constant pressure, J/K/mol (Crystal 1); method: Small (less than 1 g) adiabatic calorimetry
Temperature, K	Molar heat capacity at constant pressure, J/K/mol	uncertainty
354.42	500.39	1.50117
357.4	500.74	1.50222
360.54	501.04	1.50312
363.52	501.38	1.50414
366.5	501.78	1.50534
369.64	502.22	1.50666
372.62	502.64	1.50792
375.75	502.99	1.50897
378.73	503.4	1.5102
381.71	503.77	1.51131
384.85	504.21	1.51263
387.83	504.63	1.51389
390.81	505	1.515
393.95	505.42	1.51626
396.93	505.82	1.51746

System: dodecylamine hydrochloride; phases: Crystal 2
Fixed: Pressure, kPa = 101.325
Property: Molar heat capacity at constant pressure, J/K/mol (Crystal 2); method: Small (less than 1 g) adiabatic calorimetry
Temperature, K	Molar heat capacity at constant pressure, J/K/mol	uncertainty
334.31	1239	3.717
338.11	720.75	2.16225
341.63	692.17	2.07651
344.06	1344.8	4.0344

System: dodecylamine hydrochloride; phases: Crystal 3
Fixed: Pressure, kPa = 101.325
Property: Molar heat capacity at constant pressure, J/K/mol (Crystal 3); method: Small (less than 1 g) adiabatic calorimetry
Temperature, K	Molar heat capacity at constant pressure, J/K/mol	uncertainty
78.701	127.14	.38142
80.27	130.02	.39006
82.622	133.3	.3999
84.975	136.93	.41079
87.29	139.87	.41961
89.5	143.35	.43005
91.67	146.02	.43806
93.758	149.07	.44721
95.797	151.77	.45531
97.992	154.07	.46221
99.875	156.32	.46896
101.91	158.73	.47619
103.8	160.53	.48159
105.83	162.77	.48831
107.68	164.51	.49353
109.56	166.22	.49866
111.48	168.39	.50517
113.21	171.31	.51393
115.09	172.99	.51897
116.81	174.45	.52335
118.7	176.19	.52857
120.42	177.86	.53358
123.09	180.51	.54153
126.54	184.46	.55338
129.52	187.56	.56268
132.5	190.61	.57183
135.48	193.71	.58113
138.3	196.8	.5904
141.32	199.5	.5985
144.26	202.54	.60762
147.24	204.88	.61464
150.22	207.85	.62355
153.2	210.44	.63132
156.18	212.67	.63801
159.16	216.06	.64818
162.14	218.35	.65505
165.12	221.38	.66414
167.94	223.78	.67134
170.92	226.32	.67896
173.96	229.12	.68736
176.88	231.57	.69471
179.86	234.47	.70341
183.94	238.61	.71583
188.17	241.94	.72582
191	244.85	.73455
193.98	247.44	.74232
196.96	250.16	.75048
199.94	253.12	.75936
202.92	256.21	.76863
205.9	258.25	.77475
208.88	260.6	.7818
211.83	263.92	.79176
214.84	266.83	.80049
217.82	270.04	.81012
220.8	272.58	.81774
223.76	275.2	.8256
226.71	278	.834
229.74	281.1	.8433
232.56	284	.852
235.54	286.54	.85962
238.68	289.93	.86979
242.6	293.94	.88182
246.36	297.3	.8919
249.29	300.24	.90072
252.27	302.72	.90816
255.24	306.26	.91878
258.19	310.06	.93018
261.13	313.41	.94023
264.05	316.42	.94926
267.03	319.75	.95925
270.07	322.89	.96867
273.02	326.44	.97932
276	330.08	.99024
279.14	333.91	1.00173
282.03	337.69	1.01307
284.94	341.76	1.02528
287.92	345.77	1.03731
290.9	349.66	1.04898
293.88	353.17	1.05951
296.86	357.94	1.07382
299.88	361.61	1.08483
302.82	366.09	1.09827
305.84	369.94	1.10982
308.78	374.86	1.12458
311.76	380.61	1.14183
314.74	386.41	1.15923
317.75	393.33	1.17999
320.75	400.56	1.20168
323.72	409.86	1.22958
326.65	428.81	1.28643
