Measured thermophysical data. Isobaric heat capacity, isothermal compressibility and fluctuational properties of 1- bromoalkanes
Source: Int. J. Thermophys., 2016, 10.1007/s10765-016-2064-y
Compound 1: 1-bromohexane, C6H13Br, purity 99%
Compound 2: 1-bromoheptane, C7H15Br, purity 99%
Compound 3: 1-bromooctane, C8H17Br, purity 99%
Compound 4: 1-bromododecane, C12H25Br, purity 98%
Compound 5: 1-bromotetradecane, C14H29Br, purity 98%
Compound 6: 1-bromononane, C9H19Br, purity 98%
Compound 7: 1-bromodecane, C10H21Br, purity 97%
Compound 8: 1-bromoundecane, C11H23Br, purity 97%

System: 1-bromohexane; phases: Liquid
Fixed: Pressure, kPa = 101.325
Property: Molar heat capacity at constant pressure, J/K/mol (Liquid); method: Large sample (1 g) scanning calorimetry
Temperature, K	Molar heat capacity at constant pressure, J/K/mol	uncertainty
298.15	219.660538594	
303.15	221.27823851	
308.15	222.895938426	
313.15	224.513638342	
318.15	226.131338258	
323.15	227.765545316	
328.15	229.383245232	
333.15	231.000945148	
338.15	232.618645064	
343.15	234.23634498	
348.15	235.870552038	
353.15	237.488251954	
358.15	239.10595187	
363.15	240.723651786	
368.15	242.341351702	
373.15	243.959051618	
378.15	245.593258676	
383.15	247.210958592	
388.15	248.828658508	
393.15	250.446358424	
398.15	252.06405834	
403.15	253.681758256	
408.15	255.315965314	
413.15	256.93366523	
418.15	258.551365146	
423.15	260.169065062	

System: 1-bromoheptane; phases: Liquid
Fixed: Pressure, kPa = 101.325
Property: Molar heat capacity at constant pressure, J/K/mol (Liquid); method: Large sample (1 g) scanning calorimetry
Temperature, K	Molar heat capacity at constant pressure, J/K/mol	uncertainty
298.15	249.393965	
303.15	251.2386744	
308.15	253.065474	
313.15	254.9101834	
318.15	256.7548928	
323.15	258.5816924	
328.15	260.4264018	
333.15	262.2711112	
338.15	264.0979108	
343.15	265.9426202	
348.15	267.7694198	
353.15	269.6141292	
358.15	271.4588386	
363.15	273.2856382	
368.15	275.1303476	
373.15	276.975057	
378.15	278.8018566	
383.15	280.646566	
388.15	282.4733656	
393.15	284.318075	
398.15	286.1627844	
403.15	287.989584	
408.15	289.8342934	
413.15	291.6790028	
418.15	293.5058024	
423.15	295.3505118	

System: 1-bromooctane; phases: Liquid
Fixed: Pressure, kPa = 101.325
Property: Molar heat capacity at constant pressure, J/K/mol (Liquid); method: Large sample (1 g) scanning calorimetry
Temperature, K	Molar heat capacity at constant pressure, J/K/mol	uncertainty
298.15	272.151158136	
303.15	274.700402592	
308.15	277.249647048	
313.15	279.798891504	
318.15	282.34813596	
323.15	284.916692874	
328.15	287.46593733	
333.15	290.015181786	
338.15	292.564426242	
343.15	295.113670698	
348.15	297.662915154	
353.15	300.231472068	
358.15	302.780716524	
363.15	305.32996098	
368.15	307.879205436	
373.15	310.428449892	
378.15	312.997006806	
383.15	315.546251262	
388.15	318.095495718	
393.15	320.644740174	
398.15	323.19398463	
403.15	325.762541544	
408.15	328.311786	
413.15	330.861030456	
418.15	333.410274912	
423.15	335.959519368	

System: 1-bromododecane; phases: Liquid
Fixed: Pressure, kPa = 101.325
Property: Molar heat capacity at constant pressure, J/K/mol (Liquid); method: Large sample (1 g) scanning calorimetry
Temperature, K	Molar heat capacity at constant pressure, J/K/mol	uncertainty
298.15	399.29282489	
303.15	402.38328805	
308.15	405.47375121	
313.15	408.56421437	
318.15	411.65467753	
323.15	414.74514069	
328.15	417.83560385	
333.15	420.92606701	
338.15	424.01653017	
343.15	427.10699333	
348.15	430.19745649	
353.15	433.26299656	
358.15	436.35345972	
363.15	439.44392288	
368.15	442.53438604	
373.15	445.6248492	
378.15	448.71531236	
383.15	451.80577552	
388.15	454.89623868	
393.15	457.98670184	
398.15	461.077165	
403.15	464.14270507	
408.15	467.23316823	
413.15	470.32363139	
418.15	473.41409455	
423.15	476.50455771	

System: 1-bromotetradecane; phases: Liquid
Fixed: Pressure, kPa = 101.325
Property: Mass density, kg/m3 (Liquid); method: Pycnometric method
Temperature, K	Mass density, kg/m3	uncertainty
298.15	1012.2	
303.15	1008.1	
308.15	1003.9	
313.15	999.8	
318.15	995.7	
323.15	991.6	
328.15	987.4	
333.15	983.3	
338.15	979.1	
343.15	974.9	
348.15	970.8	
353.15	966.6	
358.15	962.4	
363.15	958.2	
368.15	954	
373.15	949.8	
378.15	945.6	
383.15	941.3	
388.15	937.1	
393.15	932.9	
398.15	928.6	
403.15	924.4	
408.15	920.1	
413.15	915.9	
418.15	911.6	
423.15	907.4	

System: 1-bromotetradecane; phases: Liquid
Fixed: Pressure, kPa = 101.325
Property: Speed of sound, m/s (Liquid); method: Pulse-echo method
Temperature, K	Speed of sound, m/s	uncertainty
298.15	1277.2	
303.15	1260.6	
308.15	1244.1	
313.15	1227.9	
318.15	1211.9	
323.15	1196	
328.15	1180.4	
333.15	1164.9	
338.15	1149.6	
343.15	1134.5	
348.15	1119.5	
353.15	1104.6	
358.15	1089.9	
363.15	1075.3	
368.15	1060.9	
373.15	1046.5	
378.15	1032.3	
383.15	1018.2	
388.15	1004.2	
393.15	990.2	
398.15	976.4	
403.15	962.6	
408.15	948.9	
413.15	935.3	
418.15	921.7	
423.15	908.1	

System: 1-bromotetradecane; phases: Liquid
Fixed: Pressure, kPa = 101.325
Property: Molar heat capacity at constant pressure, J/K/mol (Liquid); method: Large sample (1 g) scanning calorimetry
Temperature, K	Molar heat capacity at constant pressure, J/K/mol	uncertainty
298.15	450.836153154	
303.15	454.080376656	
308.15	457.296871752	
313.15	460.541095254	
318.15	463.785318756	
323.15	467.029542258	
328.15	470.27376576	
333.15	473.517989262	
338.15	476.734484358	
343.15	479.97870786	
348.15	483.222931362	
353.15	486.467154864	
358.15	489.711378366	
363.15	492.927873462	
368.15	496.172096964	
373.15	499.416320466	
378.15	502.660543968	
383.15	505.90476747	
388.15	509.148990972	
393.15	512.365486068	
398.15	515.60970957	
403.15	518.853933072	
408.15	522.098156574	
413.15	525.342380076	
418.15	528.558875172	
423.15	531.803098674	

System: 1-bromononane; phases: Liquid
Fixed: Pressure, kPa = 101.325
Property: Molar heat capacity at constant pressure, J/K/mol (Liquid); method: Large sample (1 g) scanning calorimetry
Temperature, K	Molar heat capacity at constant pressure, J/K/mol	uncertainty
298.15	308.303071428	
303.15	310.561019072	
308.15	312.818966716	
313.15	315.097629476	
318.15	317.35557712	
323.15	319.613524764	
328.15	321.871472408	
333.15	324.150135168	
338.15	326.408082812	
343.15	328.666030456	
348.15	330.9239781	
353.15	333.20264086	
358.15	335.460588504	
363.15	337.718536148	
368.15	339.976483792	
373.15	342.255146552	
378.15	344.513094196	
383.15	346.77104184	
388.15	349.028989484	
393.15	351.307652244	
398.15	353.565599888	
403.15	355.823547532	
408.15	358.081495176	
413.15	360.360157936	
418.15	362.61810558	
423.15	364.876053224	

System: 1-bromodecane; phases: Liquid
Fixed: Pressure, kPa = 101.325
Property: Molar heat capacity at constant pressure, J/K/mol (Liquid); method: Large sample (1 g) scanning calorimetry
Temperature, K	Molar heat capacity at constant pressure, J/K/mol	uncertainty
298.15	334.376507332	
303.15	336.85369802	
308.15	339.353006482	
313.15	341.852314944	
318.15	344.351623406	
323.15	346.850931868	
328.15	349.35024033	
333.15	351.849548792	
338.15	354.32673948	
343.15	356.826047942	
348.15	359.325356404	
353.15	361.824664866	
358.15	364.323973328	
363.15	366.82328179	
368.15	369.322590252	
373.15	371.79978094	
378.15	374.299089402	
383.15	376.798397864	
388.15	379.297706326	
393.15	381.797014788	
398.15	384.29632325	
403.15	386.795631712	
408.15	389.2728224	
413.15	391.772130862	
418.15	394.271439324	
423.15	396.770747786	

System: 1-bromoundecane; phases: Liquid
Fixed: Pressure, kPa = 101.325
Property: Molar heat capacity at constant pressure, J/K/mol (Liquid); method: Large sample (1 g) scanning calorimetry
Temperature, K	Molar heat capacity at constant pressure, J/K/mol	uncertainty
298.15	373.222214976	
303.15	375.715380768	
308.15	378.20854656	
313.15	380.701712352	
318.15	383.194878144	
323.15	385.688043936	
328.15	388.181209728	
333.15	390.67437552	
338.15	393.167541312	
343.15	395.660707104	
348.15	398.153872896	
353.15	400.623518256	
358.15	403.116684048	
363.15	405.60984984	
368.15	408.103015632	
373.15	410.596181424	
378.15	413.089347216	
383.15	415.582513008	
388.15	418.0756788	
393.15	420.568844592	
398.15	423.062010384	
403.15	425.555176176	
408.15	428.024821536	
413.15	430.517987328	
418.15	433.01115312	
423.15	435.504318912	
