Measured thermophysical data. Viscosity Behavior of Some Oxygen Containing  Compounds
Source: Int. J. Thermophys., 2010, 10.1007/s10765-010-0860-3
Compound 1: 4-methyl-1,3-dioxolan-2-one, C4H6O3, purity 99%
Compound 2: tetramethylene oxide, C4H8O
Compound 3: dioxane, C4H8O2
Compound 4: pentan-2,4-dione, C5H8O2

System: 4-methyl-1,3-dioxolan-2-one; phases: Liquid
Property: Mass density, kg/m3 (Liquid); method: Pycnometric method
Temperature, K	Pressure, kPa	Mass density, kg/m3	uncertainty
288.15	101	1208.67	.05
298.15	101	1197.58	.05
308.15	101	1187.16	.05

System: 4-methyl-1,3-dioxolan-2-one; phases: Liquid
Property: Viscosity, Pa*s (Liquid); method: Capillary tube (Ostwald; Ubbelohde) method
Temperature, K	Pressure, kPa	Viscosity, Pa*s	uncertainty
288.15	101	.003086	
298.15	101	.0025	
308.15	101	.002073	

System: tetramethylene oxide; phases: Liquid
Property: Mass density, kg/m3 (Liquid); method: Pycnometric method
Temperature, K	Pressure, kPa	Mass density, kg/m3	uncertainty
288.15	101	892.93	.05
298.15	101	881.96	.05
308.15	101	870.85	.05

System: tetramethylene oxide; phases: Liquid
Property: Viscosity, Pa*s (Liquid); method: Capillary tube (Ostwald; Ubbelohde) method
Temperature, K	Pressure, kPa	Viscosity, Pa*s	uncertainty
288.15	101	.000508	
298.15	101	.000462	
308.15	101	.000426	

System: dioxane; phases: Liquid
Property: Mass density, kg/m3 (Liquid); method: Pycnometric method
Temperature, K	Pressure, kPa	Mass density, kg/m3	uncertainty
288.15	101	1039.1	.05
298.15	101	1027.92	.05
308.15	101	1016.55	.05

System: dioxane; phases: Liquid
Property: Viscosity, Pa*s (Liquid); method: Capillary tube (Ostwald; Ubbelohde) method
Temperature, K	Pressure, kPa	Viscosity, Pa*s	uncertainty
288.15	101	.00144	
298.15	101	.001185	
308.15	101	.001029	

System: pentan-2,4-dione; phases: Liquid
Property: Mass density, kg/m3 (Liquid); method: Pycnometric method
Temperature, K	Pressure, kPa	Mass density, kg/m3	uncertainty
288.15	101	980.34	.05
298.15	101	972.18	.05
308.15	101	963.46	.05

System: pentan-2,4-dione; phases: Liquid
Property: Viscosity, Pa*s (Liquid); method: Capillary tube (Ostwald; Ubbelohde) method
Temperature, K	Pressure, kPa	Viscosity, Pa*s	uncertainty
288.15	101	.000741	
298.15	101	.00067	
308.15	101	.000609	

System: 4-methyl-1,3-dioxolan-2-one + tetramethylene oxide; phases: Liquid
Fixed: Pressure, kPa = 101
Property: Mass density, kg/m3 (Liquid); method: Pycnometric method
Temperature, K	Mole fraction of 4-methyl-1,3-dioxolan-2-one	Mass density, kg/m3	uncertainty
288.15	0	892.93	.05
288.15	.0188	901.15	.05
288.15	.0393	910.03	.05
288.15	.0603	918.97	.05
288.15	.077	926	.05
288.15	.0988	935.05	.05
288.15	.2117	979.75	.05
288.15	.3057	1014.39	.05
288.15	.4024	1047.72	.05
288.15	.4992	1078.98	.05
288.15	.5997	1109.33	.05
288.15	.7015	1138.16	.05
288.15	.8033	1165.19	.05
288.15	.9064	1190.96	.05
288.15	1	1208.67	.05
298.15	0	881.96	.05
298.15	.0188	890.25	.05
298.15	.0393	899.18	.05
298.15	.0603	908.19	.05
298.15	.077	915.27	.05
298.15	.0988	924.38	.05
298.15	.2117	969.45	.05
298.15	.3057	1004.06	.05
298.15	.4024	1037.25	.05
298.15	.4992	1068.45	.05
298.15	.5997	1098.74	.05
298.15	.7015	1127.39	.05
298.15	.8033	1154.55	.05
298.15	.9064	1179.68	.05
298.15	1	1197.58	.05
308.15	0	870.85	.05
308.15	.0188	879.17	.05
308.15	.0393	888.14	.05
308.15	.0603	897.18	.05
308.15	.077	904.28	.05
308.15	.0988	913.41	.05
308.15	.2117	958.45	.05
308.15	.3057	993.26	.05
308.15	.4024	1026.68	.05
308.15	.4992	1057.96	.05
308.15	.5997	1088.29	.05
308.15	.7015	1117.06	.05
308.15	.8033	1144.02	.05
308.15	.9064	1169.74	.05
308.15	1	1187.16	.05

System: 4-methyl-1,3-dioxolan-2-one + tetramethylene oxide; phases: Liquid
Fixed: Pressure, kPa = 101
Property: Viscosity, Pa*s (Liquid); method: Capillary tube (Ostwald; Ubbelohde) method
Temperature, K	Mole fraction of 4-methyl-1,3-dioxolan-2-one	Viscosity, Pa*s	uncertainty
288.15	0	.000508	
288.15	.0188	.000524	
288.15	.0393	.000542	
288.15	.0603	.000561	
288.15	.077	.000575	
288.15	.0988	.000594	
288.15	.2117	.000696	
288.15	.3057	.000794	
288.15	.4024	.000921	
288.15	.4992	.001088	
288.15	.5997	.001317	
288.15	.7015	.001626	
288.15	.8033	.00203	
288.15	.9064	.002556	
288.15	1	.003086	
298.15	0	.000462	
298.15	.0188	.00047	
298.15	.0393	.000479	
298.15	.0603	.00049	
298.15	.077	.0005	
298.15	.0988	.000513	
298.15	.2117	.0006	
298.15	.3057	.000699	
298.15	.4024	.000831	
298.15	.4992	.000998	
298.15	.5997	.001211	
298.15	.7015	.001473	
298.15	.8033	.001786	
298.15	.9064	.002158	
298.15	1	.0025	
308.15	0	.000426	
308.15	.0188	.000432	
308.15	.0393	.000439	
308.15	.0603	.000448	
308.15	.077	.000455	
308.15	.0988	.000466	
308.15	.2117	.000541	
308.15	.3057	.000629	
308.15	.4024	.000745	
308.15	.4992	.00089	
308.15	.5997	.001072	
308.15	.7015	.001289	
308.15	.8033	.00154	
308.15	.9064	.00183	
308.15	1	.002073	

System: 4-methyl-1,3-dioxolan-2-one + dioxane; phases: Liquid
Fixed: Pressure, kPa = 101
Property: Mass density, kg/m3 (Liquid); method: Pycnometric method
Temperature, K	Mole fraction of 4-methyl-1,3-dioxolan-2-one	Mass density, kg/m3	uncertainty
288.15	0	1039.1	.05
288.15	.0213	1042.6	.05
288.15	.041	1045.89	.05
288.15	.0636	1049.76	.05
288.15	.0823	1053.01	.05
288.15	.0999	1056.12	.05
288.15	.202	1074.8	.05
288.15	.299	1093.28	.05
288.15	.3991	1112.62	.05
288.15	.4991	1131.72	.05
288.15	.5987	1150.06	.05
288.15	.6996	1167.4	.05
288.15	.8049	1183.66	.05
288.15	.9003	1196.16	.05
288.15	1	1208.67	.05
298.15	0	1027.92	.05
298.15	.0213	1031.46	.05
298.15	.041	1034.79	.05
298.15	.0636	1038.7	.05
298.15	.0823	1041.99	.05
298.15	.0999	1045.13	.05
298.15	.202	1064.02	.05
298.15	.299	1082.69	.05
298.15	.3991	1101.92	.05
298.15	.4991	1121.15	.05
298.15	.5987	1139.4	.05
298.15	.6996	1156.75	.05
298.15	.8049	1172.85	.05
298.15	.9003	1185.45	.05
298.15	1	1197.58	.05
308.15	0	1016.55	.05
308.15	.0213	1020.15	.05
308.15	.041	1023.54	.05
308.15	.0636	1027.51	.05
308.15	.0823	1030.85	.05
308.15	.0999	1034.02	.05
308.15	.202	1053.09	.05
308.15	.299	1071.87	.05
308.15	.3991	1091.44	.05
308.15	.4991	1110.7	.05
308.15	.5987	1129.1	.05
308.15	.6996	1146.43	.05
308.15	.8049	1162.59	.05
308.15	.9003	1175.02	.05
308.15	1	1187.16	.05

System: 4-methyl-1,3-dioxolan-2-one + dioxane; phases: Liquid
Fixed: Pressure, kPa = 101
Property: Viscosity, Pa*s (Liquid); method: Capillary tube (Ostwald; Ubbelohde) method
Temperature, K	Mole fraction of 4-methyl-1,3-dioxolan-2-one	Viscosity, Pa*s	uncertainty
288.15	0	.00144	
288.15	.0213	.001429	
288.15	.041	.001421	
288.15	.0636	.001413	
288.15	.0823	.001408	
288.15	.0999	.001404	
288.15	.202	.001408	
288.15	.299	.00145	
288.15	.3991	.001534	
288.15	.4991	.001659	
288.15	.5987	.001826	
288.15	.6996	.002039	
288.15	.8049	.002307	
288.15	.9003	.002589	
288.15	1	.003086	
298.15	0	.001185	
298.15	.0213	.001181	
298.15	.041	.001177	
298.15	.0636	.001174	
298.15	.0823	.001173	
298.15	.0999	.001172	
298.15	.202	.001184	
298.15	.299	.00122	
298.15	.3991	.001286	
298.15	.4991	.001381	
298.15	.5987	.001508	
298.15	.6996	.001671	
298.15	.8049	.001878	
298.15	.9003	.002101	
298.15	1	.0025	
308.15	0	.001029	
308.15	.0213	.001027	
308.15	.041	.001027	
308.15	.0636	.00102	
308.15	.0823	.001026	
308.15	.0999	.001022	
308.15	.202	.001028	
308.15	.299	.001053	
308.15	.3991	.001102	
308.15	.4991	.001171	
308.15	.5987	.001274	
308.15	.6996	.001405	
308.15	.8049	.001571	
308.15	.9003	.001748	
308.15	1	.002073	

System: 4-methyl-1,3-dioxolan-2-one + pentan-2,4-dione; phases: Liquid
Fixed: Pressure, kPa = 101
Property: Mass density, kg/m3 (Liquid); method: Pycnometric method
Temperature, K	Mole fraction of 4-methyl-1,3-dioxolan-2-one	Mass density, kg/m3	uncertainty
288.15	0	980.34	.05
288.15	.0212	984.24	.05
288.15	.0438	988.61	.05
288.15	.0625	992.42	.05
288.15	.0827	996.68	.05
288.15	.1026	1001.03	.05
288.15	.201	1024.5	.05
288.15	.2982	1050.05	.05
288.15	.4028	1078.89	.05
288.15	.5	1105.74	.05
288.15	.6016	1132.67	.05
288.15	.6985	1156.08	.05
288.15	.7995	1176.95	.05
288.15	.9016	1193.11	.05
288.15	1	1208.67	.05
298.15	0	972.18	.05
298.15	.0212	975.79	.05
298.15	.0438	979.89	.05
298.15	.0625	983.48	.05
298.15	.0827	987.54	.05
298.15	.1026	991.71	.05
298.15	.201	1014.55	.05
298.15	.2982	1039.83	.05
298.15	.4028	1068.64	.05
298.15	.5	1095.61	.05
298.15	.6016	1122.7	.05
298.15	.6985	1146.19	.05
298.15	.7995	1166.95	.05
298.15	.9016	1182.69	.05
298.15	1	1197.58	.05
308.15	0	963.46	.05
308.15	.0212	966.83	.05
308.15	.0438	970.69	.05
308.15	.0625	974.11	.05
308.15	.0827	977.99	.05
308.15	.1026	982	.05
308.15	.201	1004.29	.05
308.15	.2982	1029.34	.05
308.15	.4028	1058.14	.05
308.15	.5	1085.24	.05
308.15	.6016	1112.52	.05
308.15	.6985	1136.15	.05
308.15	.7995	1156.95	.05
308.15	.9016	1172.51	.05
308.15	1	1187.16	.05

System: 4-methyl-1,3-dioxolan-2-one + pentan-2,4-dione; phases: Liquid
Fixed: Pressure, kPa = 101
Property: Viscosity, Pa*s (Liquid); method: Capillary tube (Ostwald; Ubbelohde) method
Temperature, K	Mole fraction of 4-methyl-1,3-dioxolan-2-one	Viscosity, Pa*s	uncertainty
288.15	0	.000741	
288.15	.0212	.000769	
288.15	.0438	.000797	
288.15	.0625	.000821	
288.15	.0827	.000845	
288.15	.1026	.000868	
288.15	.201	.000978	
288.15	.2982	.001086	
288.15	.4028	.001215	
288.15	.5	.001359	
288.15	.6016	.001549	
288.15	.6985	.001782	
288.15	.7995	.002093	
288.15	.9016	.002493	
288.15	1	.003086	
298.15	0	.00067	
298.15	.0212	.000692	
298.15	.0438	.000714	
298.15	.0625	.000732	
298.15	.0827	.000751	
298.15	.1026	.000769	
298.15	.201	.000857	
298.15	.2982	.000944	
298.15	.4028	.001047	
298.15	.5	.001162	
298.15	.6016	.001313	
298.15	.6985	.001495	
298.15	.7995	.001735	
298.15	.9016	.00204	
298.15	1	.0025	
308.15	0	.000609	
308.15	.0212	.000627	
308.15	.0438	.000646	
308.15	.0625	.000661	
308.15	.0827	.000677	
308.15	.1026	.000693	
308.15	.201	.000766	
308.15	.2982	.000838	
308.15	.4028	.000922	
308.15	.5	.001014	
308.15	.6016	.001133	
308.15	.6985	.001277	
308.15	.7995	.001466	
308.15	.9016	.001706	
308.15	1	.002073	
