Measured thermophysical data. Excess Volumes, Densities, Speeds of Sound, and Viscosities for the Binary Systems of 1-Octanol with Hexadecane and Squalane at (298.15, 303.15 and 308.15) K
Source: Int. J. Thermophys., 2008
Compound 1: 2,6,10,15,19,23-hexamethyltetracosane, C30H62, purity 99%
Compound 2: hexadecane, C16H34, purity 99%
Compound 3: 1-octanol, C8H18O, purity 99.5%

System: 1-octanol + hexadecane; phases: Liquid
Fixed: Pressure, kPa = 101
Property: Mass density, kg/m3 (Liquid); method: Vibrating tube method
Temperature, K	Mole fraction of 1-octanol	Mass density, kg/m3	uncertainty
293.15	0	770.456	.2
293.15	.0461	771.581	.2
293.15	.1039	773.103	.2
293.15	.1547	774.574	.2
293.15	.1944	775.766	.2
293.15	.2685	778.197	.2
293.15	.3383	780.693	.2
293.15	.4099	783.479	.2
293.15	.4981	787.31	.2
293.15	.6017	792.441	.2
293.15	.6927	797.621	.2
293.15	.7963	804.426	.2
293.15	.8445	808.003	.2
293.15	.895	812.077	.2
293.15	.9529	817.221	.2
293.15	1	821.813	.2
303.15	0	766.981	.2
303.15	.0461	768.09	.2
303.15	.1039	769.605	.2
303.15	.1547	771.039	.2
303.15	.1944	772.218	.2
303.15	.2685	774.63	.2
303.15	.3383	777.145	.2
303.15	.4099	779.937	.2
303.15	.4981	783.781	.2
303.15	.6017	788.911	.2
303.15	.6927	794.075	.2
303.15	.7963	800.846	.2
303.15	.8445	804.438	.2
303.15	.895	808.561	.2
303.15	.9529	813.871	.2
303.15	1	818.796	.2
308.15	0	763.52	.2
308.15	.0461	764.586	.2
308.15	.1039	766.078	.2
308.15	.1547	767.495	.2
308.15	.1944	768.68	.2
308.15	.2685	771.077	.2
308.15	.3383	773.575	.2
308.15	.4099	776.383	.2
308.15	.4981	780.228	.2
308.15	.6017	785.346	.2
308.15	.6927	790.488	.2
308.15	.7963	797.284	.2
308.15	.8445	800.882	.2
308.15	.895	805.017	.2
308.15	.9529	810.331	.2
308.15	1	815.286	.2

System: 1-octanol + hexadecane; phases: Liquid
Fixed: Pressure, kPa = 101
Property: Speed of sound, m/s (Liquid); method: Sing-around technique in a fixed-path interferometer
Temperature, K	Mole fraction of 1-octanol	Speed of sound, m/s	uncertainty
293.15	0	1338.6	.0002
293.15	.0461	1337	.0002
293.15	.1039	1335.7	.0002
293.15	.1547	1334.7	.0002
293.15	.1944	1334.3	.0002
293.15	.2685	1333.7	.0002
293.15	.3383	1333.5	.0002
293.15	.4099	1333.3	.0002
293.15	.4981	1333.5	.0002
293.15	.6017	1334.2	.0002
293.15	.6927	1335.8	.0002
293.15	.7963	1338.5	.0002
293.15	.8445	1340.1	.0002
293.15	.895	1342.2	.0002
293.15	.9529	1344.9	.0002
293.15	1	1348	.0002
303.15	0	1320	.0002
303.15	.0461	1318.4	.0002
303.15	.1039	1317.1	.0002
303.15	.1547	1316.1	.0002
303.15	.1944	1315.8	.0002
303.15	.2685	1315.3	.0002
303.15	.3383	1315.1	.0002
303.15	.4099	1314.9	.0002
303.15	.4981	1315.3	.0002
303.15	.6017	1316.2	.0002
303.15	.6927	1317.9	.0002
303.15	.7963	1320.9	.0002
303.15	.8445	1322.6	.0002
303.15	.895	1324.9	.0002
303.15	.9529	1327.9	.0002
303.15	1	1330.8	.0002
308.15	0	1301.7	.0002
308.15	.0461	1299.9	.0002
308.15	.1039	1298.7	.0002
308.15	.1547	1297.7	.0002
308.15	.1944	1297.4	.0002
308.15	.2685	1296.9	.0002
308.15	.3383	1296.8	.0002
308.15	.4099	1296.8	.0002
308.15	.4981	1297.2	.0002
308.15	.6017	1298.4	.0002
308.15	.6927	1300.2	.0002
308.15	.7963	1303.4	.0002
308.15	.8445	1305.3	.0002
308.15	.895	1307.8	.0002
308.15	.9529	1310.9	.0002
308.15	1	1314.1	.0002

System: 1-octanol + hexadecane; phases: Liquid
Fixed: Pressure, kPa = 101
Property: Viscosity, Pa*s (Liquid); method: Capillary tube (Ostwald; Ubbelohde) method
Temperature, K	Mole fraction of 1-octanol	Viscosity, Pa*s	uncertainty
298.15	0	.003041	.000003
298.15	.0461	.003073	.000003
298.15	.1039	.003089	.000003
298.15	.1547	.003096	.000003
298.15	.1944	.003107	.000003
298.15	.2685	.003175	.000003
298.15	.3383	.00329	.000003
298.15	.4099	.003472	.000003
298.15	.4981	.003768	.000003
298.15	.6017	.004223	.000003
298.15	.6927	.004714	.000003
298.15	.7963	.005384	.000003
298.15	.8445	.005757	.000003
298.15	.895	.006219	.000003
298.15	.9529	.00686	.000003
298.15	1	.007508	.000003
303.15	0	.002706	.000003
303.15	.0461	.002748	.000003
303.15	.1039	.002741	.000003
303.15	.1547	.002728	.000003
303.15	.1944	.002728	.000003
303.15	.2685	.002773	.000003
303.15	.3383	.002881	.000003
303.15	.4099	.003041	.000003
303.15	.4981	.003307	.000003
303.15	.6017	.003681	.000003
303.15	.6927	.004086	.000003
303.15	.7963	.004663	.000003
303.15	.8445	.004992	.000003
303.15	.895	.005383	.000003
303.15	.9529	.005883	.000003
303.15	1	.006344	.000003
308.15	0	.002409	.000003
308.15	.0461	.002402	.000003
308.15	.1039	.002399	.000003
308.15	.1547	.002406	.000003
308.15	.1944	.002419	.000003
308.15	.2685	.002473	.000003
308.15	.3383	.002561	.000003
308.15	.4099	.002688	.000003
308.15	.4981	.002896	.000003
308.15	.6017	.003218	.000003
308.15	.6927	.003554	.000003
308.15	.7963	.004008	.000003
308.15	.8445	.004251	.000003
308.15	.895	.00454	.000003
308.15	.9529	.004944	.000003
308.15	1	.005363	.000003

System: 2,6,10,15,19,23-hexamethyltetracosane + 1-octanol; phases: Liquid
Fixed: Pressure, kPa = 101
Property: Mass density, kg/m3 (Liquid); method: Vibrating tube method
Temperature, K	Mole fraction of 1-octanol	Mass density, kg/m3	uncertainty
293.15	0	805.122	.2
293.15	.0596	805.175	.2
293.15	.1053	805.299	.2
293.15	.1563	805.499	.2
293.15	.2092	805.773	.2
293.15	.2648	806.107	.2
293.15	.3404	806.637	.2
293.15	.398	807.105	.2
293.15	.4799	807.875	.2
293.15	.5974	809.279	.2
293.15	.6988	810.937	.2
293.15	.8079	813.477	.2
293.15	.8519	814.812	.2
293.15	.8942	816.384	.2
293.15	.9474	818.773	.2
293.15	1	821.813	.2
303.15	0	801.912	.2
303.15	.0596	801.944	.2
303.15	.1053	802.053	.2
303.15	.1563	802.234	.2
303.15	.2092	802.479	.2
303.15	.2648	802.799	.2
303.15	.3404	803.312	.2
303.15	.398	803.775	.2
303.15	.4799	804.507	.2
303.15	.5974	805.92	.2
303.15	.6988	807.538	.2
303.15	.8079	810.008	.2
303.15	.8519	811.352	.2
303.15	.8942	812.92	.2
303.15	.9474	815.429	.2
303.15	1	818.796	.2
308.15	0	798.709	.2
308.15	.0596	798.711	.2
308.15	.1053	798.798	.2
308.15	.1563	798.947	.2
308.15	.2092	799.184	.2
308.15	.2648	799.487	.2
308.15	.3404	799.989	.2
308.15	.398	800.439	.2
308.15	.4799	801.188	.2
308.15	.5974	802.536	.2
308.15	.6988	804.116	.2
308.15	.8079	806.567	.2
308.15	.8519	807.925	.2
308.15	.8942	809.463	.2
308.15	.9474	811.955	.2
308.15	1	815.286	.2

System: 2,6,10,15,19,23-hexamethyltetracosane + 1-octanol; phases: Liquid
Fixed: Pressure, kPa = 101
Property: Speed of sound, m/s (Liquid); method: Sing-around technique in a fixed-path interferometer
Temperature, K	Mole fraction of 1-octanol	Speed of sound, m/s	uncertainty
293.15	0	1381.9	.0002
293.15	.0596	1379.9	.0002
293.15	.1053	1378.5	.0002
293.15	.1563	1376.9	.0002
293.15	.2092	1375.7	.0002
293.15	.2648	1374.2	.0002
293.15	.3404	1372.4	.0002
293.15	.398	1370.8	.0002
293.15	.4799	1368.6	.0002
293.15	.5974	1364.9	.0002
293.15	.6988	1361.3	.0002
293.15	.8079	1356.9	.0002
293.15	.8519	1355.2	.0002
293.15	.8942	1353.2	.0002
293.15	.9474	1350.6	.0002
293.15	1	1348	.0002
303.15	0	1364.1	.0002
303.15	.0596	1362.1	.0002
303.15	.1053	1360.4	.0002
303.15	.1563	1359.3	.0002
303.15	.2092	1357.8	.0002
303.15	.2648	1356.4	.0002
303.15	.3404	1354.5	.0002
303.15	.398	1352.9	.0002
303.15	.4799	1350.7	.0002
303.15	.5974	1347.1	.0002
303.15	.6988	1343.7	.0002
303.15	.8079	1339.5	.0002
303.15	.8519	1337.8	.0002
303.15	.8942	1335.9	.0002
303.15	.9474	1333.5	.0002
303.15	1	1330.8	.0002
308.15	0	1346.5	.0002
308.15	.0596	1344.1	.0002
308.15	.1053	1343.1	.0002
308.15	.1563	1341.5	.0002
308.15	.2092	1340.2	.0002
308.15	.2648	1338.7	.0002
308.15	.3404	1336.8	.0002
308.15	.398	1335.3	.0002
308.15	.4799	1333.1	.0002
308.15	.5974	1329.5	.0002
308.15	.6988	1326.1	.0002
308.15	.8079	1322.1	.0002
308.15	.8519	1320.4	.0002
308.15	.8942	1318.7	.0002
308.15	.9474	1316.4	.0002
308.15	1	1314.1	.0002

System: 2,6,10,15,19,23-hexamethyltetracosane + 1-octanol; phases: Liquid
Fixed: Pressure, kPa = 101
Property: Viscosity, Pa*s (Liquid); method: Capillary tube (Ostwald; Ubbelohde) method
Temperature, K	Mole fraction of 1-octanol	Viscosity, Pa*s	uncertainty
298.15	0	.028257	.000003
298.15	.0596	.024176	.000003
298.15	.1053	.021924	.000003
298.15	.1563	.020118	.000003
298.15	.2092	.018812	.000003
298.15	.2648	.017878	.000003
298.15	.3404	.016974	.000003
298.15	.398	.016377	.000003
298.15	.4799	.015418	.000003
298.15	.5974	.013555	.000003
298.15	.6988	.011514	.000003
298.15	.8079	.009294	.000003
298.15	.8519	.008533	.000003
298.15	.8942	.007963	.000003
298.15	.9474	.007526	.000003
298.15	1	.007506	.000003
303.15	0	.022087	.000003
303.15	.0596	.019207	.000003
303.15	.1053	.017587	.000003
303.15	.1563	.016254	.000003
303.15	.2092	.015257	.000003
303.15	.2648	.014504	.000003
303.15	.3404	.013743	.000003
303.15	.398	.013237	.000003
303.15	.4799	.01245	.000003
303.15	.5974	.011008	.000003
303.15	.6988	.009441	.000003
303.15	.8079	.007693	.000003
303.15	.8519	.007093	.000003
303.15	.8942	.006624	.000003
303.15	.9474	.006288	.000003
303.15	1	.006344	.000003
308.15	0	.017774	.000003
308.15	.0596	.015495	.000003
308.15	.1053	.014212	.000003
308.15	.1563	.013144	.000003
308.15	.2092	.012342	.000003
308.15	.2648	.011734	.000003
308.15	.3404	.011129	.000003
308.15	.398	.010724	.000003
308.15	.4799	.010122	.000003
308.15	.5974	.009007	.000003
308.15	.6988	.007786	.000003
308.15	.8079	.006416	.000003
308.15	.8519	.005937	.000003
308.15	.8942	.005572	.000003
308.15	.9474	.00531	.000003
308.15	1	.005363	.000003
