Measured thermophysical data. Ultrasonic Studies of 4-Aminobutyric Acid in Aqueous Metformin Hydrochloride Solutions at Different Temperatures
Source: Int. J. Thermophys., 2010, 10.1007/s10765-010-0862-1
Compound 1: 4-aminobutyric acid, C4H9NO2
Compound 2: water, H2O
Compound 3: Imidodicarbonimidic diamide, N,N-dimethyl-, hydrochloride (1:1), C4H12ClN5

System: water; phases: Liquid
Property: Speed of sound, m/s (Liquid); method: Linear variable-path acoustic interferometer
Temperature, K	Pressure, kPa	Speed of sound, m/s	uncertainty
308.15	101.325	1520.4	.45612
313.15	101.325	1528	.4584
318.15	101.325	1535.2	.46056

System: water; phases: Liquid
Property: Mass density, kg/m3 (Liquid); method: Pycnometric method
Temperature, K	Pressure, kPa	Mass density, kg/m3	uncertainty
308.15	101.325	994	.28
313.15	101.325	992.2	.28
318.15	101.325	990.2	.28

System: 4-aminobutyric acid + Imidodicarbonimidic diamide, N,N-dimethyl-, hydrochloride (1:1) + water; phases: Liquid
Fixed: Pressure, kPa = 101
Property: Speed of sound, m/s (Liquid); method: Linear variable-path acoustic interferometer
Temperature, K	Molality, mol/kg of 4-aminobutyric acid	Molality, mol/kg of Imidodicarbonimidic diamide, N,N-dimethyl-, hydrochloride (1:1)	Speed of sound, m/s	uncertainty
308.15	0	0	1520.4	.45612
308.15	.02	0	1521.8	.45654
308.15	.04	0	1523	.4569
308.15	.06	0	1524.3	.45729
308.15	.08	0	1525.6	.45768
308.15	.1	0	1527	.4581
308.15	0	.05	1527.4	.45822
308.15	.02	.05	1528.7	.45861
308.15	.04	.05	1530.1	.45903
308.15	.06	.05	1531.5	.45945
308.15	.08	.05	1532.9	.45987
308.15	.1	.05	1534.2	.46026
308.15	0	.1	1529	.4587
308.15	.02	.1	1530.3	.45909
308.15	.04	.1	1531.4	.45942
308.15	.06	.1	1532.6	.45978
308.15	.08	.1	1533.8	.46014
308.15	.1	.1	1535	.4605
308.15	0	.15	1530	.459
308.15	.02	.15	1531.2	.45936
308.15	.04	.15	1532.2	.45966
308.15	.06	.15	1533.3	.45999
308.15	.08	.15	1534.4	.46032
308.15	.1	.15	1535.6	.46068
313.15	0	0	1528	.4584
313.15	.02	0	1529.4	.45882
313.15	.04	0	1530.7	.45921
313.15	.06	0	1532	.4596
313.15	.08	0	1533.3	.45999
313.15	.1	0	1534.6	.46038
313.15	0	.05	1534.4	.46032
313.15	.02	.05	1535.8	.46074
313.15	.04	.05	1536.9	.46107
313.15	.06	.05	1538.2	.46146
313.15	.08	.05	1539.3	.46179
313.15	.1	.05	1540.6	.46218
313.15	0	.1	1537.8	.46134
313.15	.02	.1	1539	.4617
313.15	.04	.1	1540	.462
313.15	.06	.1	1541.1	.46233
313.15	.08	.1	1542.2	.46266
313.15	.1	.1	1543.4	.46302
313.15	0	.15	1541.2	.46236
313.15	.02	.15	1542.3	.46269
313.15	.04	.15	1543.4	.46302
313.15	.06	.15	1544.3	.46329
313.15	.08	.15	1545.4	.46362
313.15	.1	.15	1546.6	.46398
318.15	0	0	1535.2	.46056
318.15	.02	0	1536.5	.46095
318.15	.04	0	1537.7	.46131
318.15	.06	0	1538.9	.46167
318.15	.08	0	1540.1	.46203
318.15	.1	0	1541.3	.46239
318.15	0	.05	1539.2	.46176
318.15	.02	.05	1540.4	.46212
318.15	.04	.05	1541.4	.46242
318.15	.06	.05	1542.6	.46278
318.15	.08	.05	1543.7	.46311
318.15	.1	.05	1545	.4635
318.15	0	.1	1541	.4623
318.15	.02	.1	1542	.4626
318.15	.04	.1	1543	.4629
318.15	.06	.1	1543.8	.46314
318.15	.08	.1	1544.7	.46341
318.15	.1	.1	1545.8	.46374
318.15	0	.15	1543.8	.46314
318.15	.02	.15	1544.7	.46341
318.15	.04	.15	1545.6	.46368
318.15	.06	.15	1546.5	.46395
318.15	.08	.15	1547.3	.46419
318.15	.1	.15	1548.2	.46446

System: 4-aminobutyric acid + Imidodicarbonimidic diamide, N,N-dimethyl-, hydrochloride (1:1) + water; phases: Liquid
Fixed: Pressure, kPa = 101
Property: Mass density, kg/m3 (Liquid); method: Pycnometric method
Temperature, K	Molality, mol/kg of 4-aminobutyric acid	Molality, mol/kg of Imidodicarbonimidic diamide, N,N-dimethyl-, hydrochloride (1:1)	Mass density, kg/m3	uncertainty
308.15	0	0	994	.28
308.15	.02	0	994.6	.28
308.15	.04	0	995.2	.28
308.15	.06	0	995.8	.28
308.15	.08	0	996.4	.28
308.15	.1	0	997	.28
308.15	0	.05	997.5	.28
308.15	.02	.05	998.1	.28
308.15	.04	.05	998.6	.28
308.15	.06	.05	999.1	.28
308.15	.08	.05	999.6	.28
308.15	.1	.05	1000.1	.28
308.15	0	.1	999.1	.28
308.15	.02	.1	999.6	.28
308.15	.04	.1	1000.2	.28
308.15	.06	.1	1000.7	.28
308.15	.08	.1	1001.2	.28
308.15	.1	.1	1001.7	.28
308.15	0	.15	1000.2	.28
308.15	.02	.15	1000.7	.28
308.15	.04	.15	1001.3	.28
308.15	.06	.15	1001.8	.28
308.15	.08	.15	1002.3	.28
308.15	.1	.15	1002.7	.28
313.15	0	0	992.2	.28
313.15	.02	0	992.8	.28
313.15	.04	0	993.4	.28
313.15	.06	0	994	.28
313.15	.08	0	994.6	.28
313.15	.1	0	995.2	.28
313.15	0	.05	996	.28
313.15	.02	.05	996.5	.28
313.15	.04	.05	997.1	.28
313.15	.06	.05	997.6	.28
313.15	.08	.05	998.2	.28
313.15	.1	.05	998.7	.28
313.15	0	.1	997.2	.28
313.15	.02	.1	997.7	.28
313.15	.04	.1	998.3	.28
313.15	.06	.1	998.8	.28
313.15	.08	.1	999.3	.28
313.15	.1	.1	999.7	.28
313.15	0	.15	998.8	.28
313.15	.02	.15	999.3	.28
313.15	.04	.15	999.8	.28
313.15	.06	.15	1000.4	.28
313.15	.08	.15	1000.9	.28
313.15	.1	.15	1001.3	.28
318.15	0	0	990.2	.28
318.15	.02	0	990.8	.28
318.15	.04	0	991.4	.28
318.15	.06	0	992	.28
318.15	.08	0	992.6	.28
318.15	.1	0	993.2	.28
318.15	0	.05	994.3	.28
318.15	.02	.05	994.8	.28
318.15	.04	.05	995.4	.28
318.15	.06	.05	995.9	.28
318.15	.08	.05	996.4	.28
318.15	.1	.05	996.8	.28
318.15	0	.1	995.5	.28
318.15	.02	.1	996	.28
318.15	.04	.1	996.5	.28
318.15	.06	.1	997.1	.28
318.15	.08	.1	997.6	.28
318.15	.1	.1	998	.28
318.15	0	.15	997.2	.28
318.15	.02	.15	997.7	.28
318.15	.04	.15	998.2	.28
318.15	.06	.15	998.7	.28
318.15	.08	.15	999.2	.28
318.15	.1	.15	999.7	.28

System: 4-aminobutyric acid + water; phases: Liquid
Property: Speed of sound, m/s (Liquid); method: Linear variable-path acoustic interferometer
Temperature, K	Molality, mol/kg of 4-aminobutyric acid	Pressure, kPa	Speed of sound, m/s	uncertainty
308.15	.02	101.325	1521.8	.45654
308.15	.04	101.325	1523	.4569
308.15	.06	101.325	1524.3	.45729
308.15	.08	101.325	1525.6	.45768
308.15	.1	101.325	1527	.4581
313.15	.02	101.325	1529.4	.45882
313.15	.04	101.325	1530.7	.45921
313.15	.06	101.325	1532	.4596
313.15	.08	101.325	1533.3	.45999
313.15	.1	101.325	1534.6	.46038
318.15	.02	101.325	1536.5	.46095
318.15	.04	101.325	1537.7	.46131
318.15	.06	101.325	1538.9	.46167
318.15	.08	101.325	1540.1	.46203
318.15	.1	101.325	1541.3	.46239

System: 4-aminobutyric acid + water; phases: Liquid
Property: Mass density, kg/m3 (Liquid); method: Pycnometric method
Temperature, K	Molality, mol/kg of 4-aminobutyric acid	Pressure, kPa	Mass density, kg/m3	uncertainty
308.15	.02	101.325	994.6	.28
308.15	.04	101.325	995.2	.28
308.15	.06	101.325	995.8	.28
308.15	.08	101.325	996.4	.28
308.15	.1	101.325	997	.28
313.15	.02	101.325	992.8	.28
313.15	.04	101.325	993.4	.28
313.15	.06	101.325	994	.28
313.15	.08	101.325	994.6	.28
313.15	.1	101.325	995.2	.28
318.15	.02	101.325	990.8	.28
318.15	.04	101.325	991.4	.28
318.15	.06	101.325	992	.28
318.15	.08	101.325	992.6	.28
318.15	.1	101.325	993.2	.28

System: Imidodicarbonimidic diamide, N,N-dimethyl-, hydrochloride (1:1) + water; phases: Liquid
Property: Speed of sound, m/s (Liquid); method: Linear variable-path acoustic interferometer
Temperature, K	Molality, mol/kg of Imidodicarbonimidic diamide, N,N-dimethyl-, hydrochloride (1:1)	Pressure, kPa	Speed of sound, m/s	uncertainty
308.15	.05	101.325	1527.4	.45822
308.15	.1	101.325	1529	.4587
308.15	.15	101.325	1530	.459
313.15	.05	101.325	1534.4	.46032
313.15	.1	101.325	1537.8	.46134
313.15	.15	101.325	1541.2	.46236
318.15	.05	101.325	1539.2	.46176
318.15	.1	101.325	1541	.4623
318.15	.15	101.325	1543.8	.46314

System: Imidodicarbonimidic diamide, N,N-dimethyl-, hydrochloride (1:1) + water; phases: Liquid
Property: Mass density, kg/m3 (Liquid); method: Pycnometric method
Temperature, K	Molality, mol/kg of Imidodicarbonimidic diamide, N,N-dimethyl-, hydrochloride (1:1)	Pressure, kPa	Mass density, kg/m3	uncertainty
308.15	.05	101.325	997.5	.28
308.15	.1	101.325	999.1	.28
308.15	.15	101.325	1000.2	.28
313.15	.05	101.325	996	.28
313.15	.1	101.325	997.2	.28
313.15	.15	101.325	998.8	.28
318.15	.05	101.325	994.3	.28
318.15	.1	101.325	995.5	.28
318.15	.15	101.325	997.2	.28
