Measured thermophysical data. Density, Viscosity, Sound Speed, and Thermoacoustical Parameters of Benzaldehyde with Chlorobenzene or Nitrobenzene at 303.15 K, 308.15 K, and 313.15 K
Source: Int. J. Thermophys., 2013, 10.1007/s10765-013-1492-1
Compound 1: benzaldehyde, C7H6O, purity 98%
Compound 2: chlorobenzene, C6H5Cl, purity 98%
Compound 3: nitrobenzene, C6H5NO2, purity 98%

System: benzaldehyde; phases: Liquid
Property: Mass density, kg/m3 (Liquid); method: Pycnometric method
Temperature, K	Pressure, kPa	Mass density, kg/m3	uncertainty
303.15	101	1031.7	3
308.15	101	1031.3	3
313.15	101	1028	3
303.15	101	1035.7	3

System: benzaldehyde; phases: Liquid
Property: Viscosity, Pa*s (Liquid); method: Capillary tube (Ostwald; Ubbelohde) method
Temperature, K	Pressure, kPa	Viscosity, Pa*s	uncertainty
303.15	101	.0013202	
308.15	101	.001249	
313.15	101	.0012415	
308.15	101	.0012486	
313.15	101	.0012413	

System: benzaldehyde; phases: Liquid
Property: Speed of sound, m/s (Liquid); method: Linear variable-path acoustic interferometer
Temperature, K	Pressure, kPa	Speed of sound, m/s	uncertainty
303.15	101	1452	
308.15	101	1428	
313.15	101	1413	
308.15	101	1428.8	

System: chlorobenzene; phases: Liquid
Property: Mass density, kg/m3 (Liquid); method: Pycnometric method
Temperature, K	Pressure, kPa	Mass density, kg/m3	uncertainty
303.15	101	1086.6	3
308.15	101	1085.1	3
313.15	101	1081.1	3

System: chlorobenzene; phases: Liquid
Property: Viscosity, Pa*s (Liquid); method: Capillary tube (Ostwald; Ubbelohde) method
Temperature, K	Pressure, kPa	Viscosity, Pa*s	uncertainty
303.15	101	.0007147	
308.15	101	.0007469	
313.15	101	.0007383	

System: chlorobenzene; phases: Liquid
Property: Speed of sound, m/s (Liquid); method: Linear variable-path acoustic interferometer
Temperature, K	Pressure, kPa	Speed of sound, m/s	uncertainty
303.15	101	1249	
308.15	101	1224	
313.15	101	1220	

System: nitrobenzene; phases: Liquid
Property: Mass density, kg/m3 (Liquid); method: Pycnometric method
Temperature, K	Pressure, kPa	Mass density, kg/m3	uncertainty
303.15	101	1189.6	3
308.15	101	1189.4	3
313.15	101	1187.2	3

System: nitrobenzene; phases: Liquid
Property: Viscosity, Pa*s (Liquid); method: Capillary tube (Ostwald; Ubbelohde) method
Temperature, K	Pressure, kPa	Viscosity, Pa*s	uncertainty
303.15	101	.0016179	
308.15	101	.0016177	
313.15	101	.0016101	

System: nitrobenzene; phases: Liquid
Property: Speed of sound, m/s (Liquid); method: Linear variable-path acoustic interferometer
Temperature, K	Pressure, kPa	Speed of sound, m/s	uncertainty
303.15	101	1407	
308.15	101	1361	
313.15	101	1326	

System: benzaldehyde + chlorobenzene; phases: Liquid
Fixed: Pressure, kPa = 101
Property: Mass density, kg/m3 (Liquid); method: Pycnometric method
Temperature, K	Mole fraction of benzaldehyde	Mass density, kg/m3	uncertainty
303.15	0	1086.6	3
303.15	.1006	1084.3	3
303.15	.2011	1081.4	3
303.15	.3015	1077.2	3
303.15	.4017	1071.9	3
303.15	.5017	1066.5	3
303.15	.6017	1060.9	3
303.15	.7015	1055	3
303.15	.8011	1048.5	3
303.15	.9006	1041.6	3
303.15	1	1031.7	3
308.15	0	1085.1	3
308.15	.1006	1082	3
308.15	.2011	1079.1	3
308.15	.3015	1075	3
308.15	.4017	1070.3	3
308.15	.5017	1065.2	3
308.15	.6017	1059.8	3
308.15	.7015	1053.8	3
308.15	.8011	1047.5	3
308.15	.9006	1040.8	3
308.15	1	1031.3	3
313.15	0	1081.1	3
313.15	.1006	1077.9	3
313.15	.2011	1075	3
313.15	.3015	1070.2	3
313.15	.4017	1065.2	3
313.15	.5017	1059.9	3
313.15	.6017	1054.6	3
313.15	.7015	1049.1	3
313.15	.8011	1043.3	3
313.15	.9006	1036.9	3
313.15	1	1028	3

System: benzaldehyde + chlorobenzene; phases: Liquid
Fixed: Pressure, kPa = 101
Property: Viscosity, Pa*s (Liquid); method: Capillary tube (Ostwald; Ubbelohde) method
Temperature, K	Mole fraction of benzaldehyde	Viscosity, Pa*s	uncertainty
303.15	0	.0007147	
303.15	.1006	.0007984	
303.15	.2011	.0008332	
303.15	.3015	.0008814	
303.15	.4017	.0009297	
303.15	.5017	.0009803	
303.15	.6017	.0010288	
303.15	.7015	.0010821	
303.15	.8011	.0011341	
303.15	.9006	.0011964	
303.15	1	.0013202	
308.15	0	.0007469	
308.15	.1006	.0007805	
308.15	.2011	.0008123	
308.15	.3015	.0008532	
308.15	.4017	.000905	
308.15	.5017	.0009559	
308.15	.6017	.0010089	
308.15	.7015	.0010607	
308.15	.8011	.0011178	
308.15	.9006	.0011839	
308.15	1	.001249	
313.15	0	.0007383	
313.15	.1006	.0007641	
313.15	.2011	.0007949	
313.15	.3015	.0008407	
313.15	.4017	.0008891	
313.15	.5017	.0009425	
313.15	.6017	.0009925	
313.15	.7015	.0010446	
313.15	.8011	.0010986	
313.15	.9006	.0011628	
313.15	1	.0012415	

System: benzaldehyde + chlorobenzene; phases: Liquid
Fixed: Pressure, kPa = 101
Property: Speed of sound, m/s (Liquid); method: Linear variable-path acoustic interferometer
Temperature, K	Mole fraction of benzaldehyde	Speed of sound, m/s	uncertainty
303.15	0	1249	
303.15	.1006	1265	
303.15	.2011	1282	
303.15	.3015	1299	
303.15	.4017	1318	
303.15	.5017	1337	
303.15	.6017	1356	
303.15	.7015	1376	
303.15	.8011	1397	
303.15	.9006	1418	
303.15	1	1452	
308.15	0	1224	
308.15	.1006	1241	
308.15	.2011	1258	
308.15	.3015	1277	
308.15	.4017	1296	
308.15	.5017	1316	
308.15	.6017	1337	
308.15	.7015	1358	
308.15	.8011	1380	
308.15	.9006	1403	
308.15	1	1428	
313.15	0	1220	
313.15	.1006	1235	
313.15	.2011	1249	
313.15	.3015	1267	
313.15	.4017	1286	
313.15	.5017	1305	
313.15	.6017	1325	
313.15	.7015	1345	
313.15	.8011	1366	
313.15	.9006	1387	
313.15	1	1413	

System: nitrobenzene + benzaldehyde; phases: Liquid
Fixed: Pressure, kPa = 101
Property: Mass density, kg/m3 (Liquid); method: Pycnometric method
Temperature, K	Mole fraction of benzaldehyde	Mass density, kg/m3	uncertainty
303.15	0	1189.6	3
303.15	.1018	1170.8	3
303.15	.2032	1160.2	3
303.15	.3043	1143	3
303.15	.4049	1130.6	3
303.15	.5051	1117.6	3
303.15	.6049	1102.6	3
303.15	.7042	1083.9	3
303.15	.8032	1065.2	3
303.15	.9018	1050.9	3
303.15	1	1035.7	3
308.15	0	1189.4	3
308.15	.1018	1170.6	3
308.15	.2032	1159.9	3
308.15	.3043	1142.6	3
308.15	.4049	1129.8	3
308.15	.5051	1117	3
308.15	.6049	1101.8	3
308.15	.7042	1082.7	3
308.15	.8032	1065	3
308.15	.9018	1048.8	3
308.15	1	1031.3	3
313.15	0	1187.2	3
313.15	.1018	1166.6	3
313.15	.2032	1150.6	3
313.15	.3043	1142.4	3
313.15	.4049	1121.9	3
313.15	.5051	1110.9	3
313.15	.6049	1101.1	3
313.15	.7042	1080.7	3
313.15	.8032	1064.5	3
313.15	.9018	1043.8	3
313.15	1	1028	3

System: nitrobenzene + benzaldehyde; phases: Liquid
Fixed: Pressure, kPa = 101
Property: Viscosity, Pa*s (Liquid); method: Capillary tube (Ostwald; Ubbelohde) method
Temperature, K	Mole fraction of benzaldehyde	Viscosity, Pa*s	uncertainty
303.15	0	.0016179	
303.15	.1018	.0015555	
303.15	.2032	.0015345	
303.15	.3043	.0014949	
303.15	.4049	.0014547	
303.15	.5051	.0014274	
303.15	.6049	.0014052	
303.15	.7042	.0013592	
303.15	.8032	.0013325	
303.15	.9018	.0012951	
303.15	1	.0013202	
308.15	0	.0016177	
308.15	.1018	.0015456	
308.15	.2032	.0015042	
308.15	.3043	.0014559	
308.15	.4049	.0014292	
308.15	.5051	.0014111	
308.15	.6049	.0013886	
308.15	.7042	.0013542	
308.15	.8032	.0013157	
308.15	.9018	.0012823	
308.15	1	.0012486	
313.15	0	.0016101	
313.15	.1018	.0015237	
313.15	.2032	.0014723	
313.15	.3043	.0014502	
313.15	.4049	.0014024	
313.15	.5051	.0013828	
313.15	.6049	.0013706	
313.15	.7042	.0013428	
313.15	.8032	.0013068	
313.15	.9018	.0012674	
313.15	1	.0012413	

System: nitrobenzene + benzaldehyde; phases: Liquid
Fixed: Pressure, kPa = 101
Property: Speed of sound, m/s (Liquid); method: Linear variable-path acoustic interferometer
Temperature, K	Mole fraction of benzaldehyde	Speed of sound, m/s	uncertainty
303.15	0	1407	
303.15	.1018	1409.5	
303.15	.2032	1412	
303.15	.3043	1414.6	
303.15	.4049	1417.5	
303.15	.5051	1420.6	
303.15	.6049	1424.5	
303.15	.7042	1428.3	
303.15	.8032	1432.5	
303.15	.9018	1437	
303.15	1	1452	
308.15	0	1361	
308.15	.1018	1366.2	
308.15	.2032	1372	
308.15	.3043	1378	
308.15	.4049	1384	
308.15	.5051	1390.6	
308.15	.6049	1397.8	
308.15	.7042	1405	
308.15	.8032	1412.5	
308.15	.9018	1420	
308.15	1	1428.8	
313.15	0	1326	
313.15	.1018	1332.4	
313.15	.2032	1340	
313.15	.3043	1348	
313.15	.4049	1356.2	
313.15	.5051	1364.8	
313.15	.6049	1374	
313.15	.7042	1383	
313.15	.8032	1392.3	
313.15	.9018	1401.7	
313.15	1	1413	
