Measured thermophysical data. Viscosity of Associated Mixtures Approximated by the Grunberg-Nissan Model
Source: Int. J. Thermophys., 2012, 10.1007/s10765-011-1100-1
Compound 1: 2-picoline, C6H7N
Compound 2: pyridine, 2,6-dimethyl-, C7H9N
Compound 3: water, H2O
Compound 4: methanol, CH4O

System: 2-picoline; phases: Liquid
Fixed: Pressure, kPa = 101.325
Property: Mass density, kg/m3 (Liquid); method: Vibrating tube method
Temperature, K	Mass density, kg/m3	uncertainty
293.15	943.34	.05

System: 2-picoline; phases: Liquid
Property: Viscosity, Pa*s (Liquid); method: Capillary tube (Ostwald; Ubbelohde) method
Temperature, K	Pressure, kPa	Viscosity, Pa*s	uncertainty
292.54	101	.000812	.00000406
298.18	101	.000751	.000003755
303.21	101	.000704	.00000352
308.23	101	.000663	.000003315
313.29	101	.000623	.000003115
318.33	101	.000588	.00000294
293.15	101	.000804	.00000402

System: pyridine, 2,6-dimethyl-; phases: Liquid
Fixed: Pressure, kPa = 101.325
Property: Mass density, kg/m3 (Liquid); method: Vibrating tube method
Temperature, K	Mass density, kg/m3	uncertainty
293.15	922.44	.05

System: pyridine, 2,6-dimethyl-; phases: Liquid
Property: Viscosity, Pa*s (Liquid); method: Capillary tube (Ostwald; Ubbelohde) method
Temperature, K	Pressure, kPa	Viscosity, Pa*s	uncertainty
292.65	101	.000872	.00000436
298.2	101	.000806	.00000403
303.24	101	.000753	.000003765
308.26	101	.000708	.00000354
313.34	101	.000663	.000003315
318.39	101	.000627	.000003135
293.15	101	.000809	.000004045

System: methanol; phases: Liquid
Fixed: Pressure, kPa = 101.325
Property: Mass density, kg/m3 (Liquid); method: Vibrating tube method
Temperature, K	Mass density, kg/m3	uncertainty
293.15	791.28	.05

System: methanol; phases: Liquid
Property: Viscosity, Pa*s (Liquid); method: Capillary tube (Ostwald; Ubbelohde) method
Temperature, K	Pressure, kPa	Viscosity, Pa*s	uncertainty
293.31	101	.000589	.000002945
298.22	101	.000548	.00000274
303.21	101	.000511	.000002555
308.56	101	.000476	.00000238
313.25	101	.000446	.00000223
318.3	101	.000419	.000002095
293.15	101	.000549	.000002745

System: pyridine, 2,6-dimethyl- + water; phases: Liquid
Fixed: Pressure, kPa = 101
Property: Viscosity, Pa*s (Liquid); method: Capillary tube (Ostwald; Ubbelohde) method
Mole fraction of pyridine, 2,6-dimethyl-	Temperature, K	Viscosity, Pa*s	uncertainty
.0297	292.65	.001806	.00000903
.0297	298.15	.001553	.000007765
.0297	302.02	.001415	.000007075
.0501	292.76	.002457	.000012285
.0501	298.21	.002095	.000010475
.0501	303.17	.001932	.00000966
.0602	292.71	.002784	.00001392
.0602	298.19	.002361	.000011805
.0602	303.05	.002172	.00001086
.1001	292.73	.003838	.00001919
.1001	298.2	.00314	.0000157
.1001	303.08	.002712	.00001356
.2004	292.73	.005523	.000027615
.2004	298.23	.004298	.00002149
.2004	303.02	.00354	.0000177
.3006	292.69	.005534	.00002767
.3006	298.12	.004353	.000021765
.3006	303.17	.003538	.00001769
.3981	292.89	.0046	.000023
.3981	298.17	.003708	.00001854
.3981	303.19	.003072	.00001536
.3981	308.21	.002587	.000012935
.3981	313.31	.002196	.00001098
.3981	318.34	.001902	.00000951
.5008	292.75	.003445	.000017225
.5008	298.16	.002844	.00001422
.5008	303.19	.002464	.00001232
.5008	308.18	.002071	.000010355
.5008	313.25	.001794	.00000897
.5008	318.3	.001571	.000007855
.651	292.79	.002102	.00001051
.651	298.2	.001812	.00000906
.651	303.26	.001593	.000007965
.651	308.26	.001413	.000007065
.651	313.32	.001262	.00000631
.651	318.37	.001134	.00000567
.7887	292.79	.001144	.00000572
.7887	298.19	.001038	.00000519
.7887	303.23	.000955	.000004775
.7887	308.23	.000881	.000004405
.7887	313.34	.000815	.000004075
.7887	318.36	.000758	.00000379
1	292.65	.000872	.00000436
1	298.2	.000806	.00000403
1	303.24	.000753	.000003765
1	308.26	.000708	.00000354
1	313.34	.000663	.000003315
1	318.39	.000627	.000003135

System: methanol + pyridine, 2,6-dimethyl-; phases: Liquid
Fixed: Pressure, kPa = 101
Property: Viscosity, Pa*s (Liquid); method: Capillary tube (Ostwald; Ubbelohde) method
Mole fraction of pyridine, 2,6-dimethyl-	Temperature, K	Viscosity, Pa*s	uncertainty
0	293.31	.000589	.000002945
0	298.22	.000548	.00000274
0	303.21	.000511	.000002555
0	308.56	.000476	.00000238
0	313.25	.000446	.00000223
0	318.3	.000419	.000002095
.1115	292.38	.000767	.000003835
.1115	298.01	.000705	.000003525
.1115	303.08	.000655	.000003275
.1115	308.08	.000613	.000003065
.1115	313.15	.000572	.00000286
.1115	318.22	.000535	.000002675
.2399	292.93	.000895	.000004475
.2399	298.24	.000823	.000004115
.2399	303.21	.000763	.000003815
.2399	308.25	.00071	.00000355
.2399	312.95	.000662	.00000331
.2399	318.32	.000617	.000003085
.2763	292.86	.00093	.00000465
.2763	298.12	.000857	.000004285
.2763	303.17	.000793	.000003965
.2763	308.19	.000739	.000003695
.2763	313.25	.000688	.00000344
.2763	318.33	.000643	.000003215
.4001	293.04	.000986	.00000493
.4001	298.18	.000912	.00000456
.4001	303.21	.00085	.00000425
.4001	313.27	.000729	.000003645
.4001	318.33	.000682	.00000341
.5482	292.7	.000988	.00000494
.5482	298.18	.000909	.000004545
.5482	303.25	.00084	.0000042
.5482	308.24	.000782	.00000391
.5482	318.35	.000688	.00000344
.7013	292.89	.000964	.00000482
.7013	298.29	.000891	.000004455
.7013	303.24	.000828	.00000414
.7013	308.26	.000774	.00000387
.7013	313.33	.000725	.000003625
.7013	318.38	.00068	.0000034
.8449	292.98	.000912	.00000456
.8449	298.19	.000846	.00000423
.8449	303.15	.000789	.000003945
.8449	308.18	.000737	.000003685
.8449	313.22	.000691	.000003455
.8449	318.28	.00065	.00000325

System: methanol + 2-picoline; phases: Liquid
Fixed: Pressure, kPa = 101
Property: Viscosity, Pa*s (Liquid); method: Capillary tube (Ostwald; Ubbelohde) method
Mole fraction of 2-picoline	Temperature, K	Viscosity, Pa*s	uncertainty
.1201	292.59	.000698	.00000349
.1201	298.25	.000641	.000003205
.1201	303.16	.0006	.000003
.1201	308.17	.000562	.00000281
.1201	313.22	.000522	.00000261
.1201	318.26	.00049	.00000245
.2351	292.54	.000782	.00000391
.2351	303.15	.000671	.000003355
.2351	308.38	.000625	.000003125
.2351	313.21	.000587	.000002935
.2351	318.25	.00055	.00000275
.4451	292.69	.00084	.0000042
.4451	298.23	.000774	.00000387
.4451	303.25	.000722	.00000361
.4451	308.26	.000676	.00000338
.4451	313.28	.000633	.000003165
.4451	318.36	.000594	.00000297
.5511	292.75	.000846	.00000423
.5511	298.23	.000782	.00000391
.5511	303.26	.000729	.000003645
.5511	308.25	.000682	.00000341
.5511	313.28	.000641	.000003205
.5511	318.35	.000601	.000003005
.6483	292.56	.00085	.00000425
.6483	298.28	.000784	.00000392
.6483	303.22	.000733	.000003665
.6483	308.23	.000686	.00000343
.6483	313.27	.000645	.000003225
.6483	318.29	.000606	.00000303
.8299	292.59	.000824	.00000412
.8299	298.28	.00076	.0000038
.8299	303.22	.000714	.00000357
.8299	308.23	.000669	.000003345
.8299	313.27	.000631	.000003155
.8299	318.29	.000592	.00000296
1	292.54	.000812	.00000406
1	298.18	.000751	.000003755
1	303.21	.000704	.00000352
1	308.23	.000663	.000003315
1	313.29	.000623	.000003115
1	318.33	.000588	.00000294
