Measured thermophysical data. Burnett Method with Absolute Pressure Transducer and Measurements for PVT Properties of Nitrogen and Hydrogen up to 473 K and 100MPa
Source: Int. J. Thermophys., 2012, 10.1007/s10765-011-1120-x
Compound 1: nitrogen, diatomic, N2, purity 99.999%
Compound 2: hydrogen, H2

System: nitrogen, diatomic; phases: Gas
Property: Amount density, mol/m3 (Gas); method: Burnett expansion method
Temperature, K	Pressure, kPa	Amount density, mol/m3	uncertainty
353.238	97567	18264	7.3056
353.238	51818	12994	5.1976
353.238	31865	9245.4	3.69816
353.238	21085	6580.2	2.63208
353.238	14454	4684.4	1.87376
353.238	10083	3335.1	1.33404
353.238	7099	2374.4	.94976
353.238	5020	1690.3	.67612
353.238	3560	1203.3	.48132
353.238	2528	856.53	.342612
353.238	1796	609.68	.243872
353.238	1277	433.96	.173584
353.242	99815	18462	7.3848
353.242	52662	13136	5.2544
353.242	32289	9345.7	3.73828
353.242	21330	6651.4	2.66056
353.242	14608	4734.9	1.89396
353.242	10189	3370.9	1.34836
353.242	7173	2399.7	.95988
353.242	5073	1708.3	.68332
353.242	3597	1216	.4864
353.242	2554	865.58	.346232
353.242	1815	616.1	.24644
353.242	1290	438.52	.175408
353.242	918	312.11	.124844
373.25	99433	17806	7.1224
373.25	53631	12668	5.0672
373.25	33124	9014.5	3.6058
373.25	21923	6417.3	2.56692
373.25	15008	4569.9	1.82796
373.25	10457	3254.7	1.30188
373.25	7353	2318	.9272
373.25	5197	1650.8	.66032
373.25	3683	1175.5	.4702
373.25	2615	837.07	.334828
373.25	1858	596.03	.238412
373.25	1321	424.39	.169756
373.25	939	302.17	.120868
393.213	99452	17196	6.8784
393.213	54593	12234	4.8936
393.213	33930	8706.9	3.48276
393.213	22477	6200.1	2.48004
393.213	15382	4416.7	1.76668
393.213	10708	3146.9	1.25876
393.213	7525	2242.1	.89684
393.213	5315	1597.4	.63896
393.213	3765	1137.9	.45516
393.213	2672	810.61	.324244
393.213	1899	577.41	.230964
393.213	1350	411.28	.164512
393.213	960	292.94	.117176
433.196	99190	16118	6.4472
433.196	56091	11468	4.5872
433.196	35253	8163.8	3.26552
433.196	23429	5816.1	2.32644
433.196	16037	4145.9	1.65836
433.196	11156	2956.1	1.18244
433.196	7834	2107.8	.84312
433.196	5531	1502.8	.60112
433.196	3917	1071.4	.42856
433.196	2780	763.77	.305508
433.196	1975	544.44	.217776
433.196	1405	388.07	.155228
433.196	1000	276.6	.11064
473.203	98712	15161	6.0644
473.203	57163	10788	4.3152
473.203	36270	7681.8	3.07272
473.203	24181	5475.1	2.19004
473.203	16567	3905.2	1.56208
473.203	11522	2786.3	1.11452
473.203	8090	1988.2	.79528
473.203	5715	1418.5	.5674
473.203	4047	1012.1	.40484
473.203	2873	721.98	.288792
473.203	2043	515.01	.206004
473.203	1453	367.35	.14694
473.203	1035	262.01	.104804

System: hydrogen; phases: Gas
Property: Amount density, mol/m3 (Gas); method: Burnett expansion method
Temperature, K	Pressure, kPa	Amount density, mol/m3	uncertainty
473.196	99349	17993	7.1972
473.196	63569	12814	5.1256
473.196	42153	9128	3.6512
473.196	28617	6504.3	2.60172
473.196	19728	4635.9	1.85436
473.196	13736	3304.8	1.32192
473.196	9636	2356.2	.94248
473.196	6792	1680.1	.67204
473.196	4805	1198	.4792
473.196	3407	854.29	.341716
473.196	2419	609.21	.243684
473.196	1722	434.44	.173776
473.196	1226	309.82	.123928
