Measured thermophysical data. Viscosities of Binary Mixtures Containing Isomeric Chlorobutanes and Diisopropylether: Experimental and Predicted Values
Source: Int. J. Thermophys., 2010, 10.1007/s10765-010-0737-5
Compound 1: 1-chlorobutane, C4H9Cl
Compound 2: 1-methylpropyl chloride, C4H9Cl
Compound 3: 2-methyl-2-chloropropane, C4H9Cl
Compound 4: isopropyl ether, C6H14O
Compound 5: propane, 1-chloro-2-methyl-, C4H9Cl

System: 1-chlorobutane; phases: Liquid
Property: Viscosity, Pa*s (Liquid); method: Capillary tube (Ostwald; Ubbelohde) method
Temperature, K	Pressure, kPa	Viscosity, Pa*s	uncertainty
283.15	101	.0004993	
288.15	101	.0004701	
293.15	101	.0004433	
298.15	101	.0004214	
303.15	101	.000405	
308.15	101	.0003885	
313.15	101	.0003642	

System: 1-chlorobutane; phases: Liquid
Property: Mass density, kg/m3 (Liquid); method: Vibrating tube method
Temperature, K	Pressure, kPa	Mass density, kg/m3	uncertainty
283.15	101.3	897.339	.001
288.15	101.3	891.855	.001
293.15	101.3	886.335	.001
298.15	101.3	880.705	.001
303.15	101.3	875.204	.001
308.15	101.3	869.585	.001
313.15	101.3	863.882	.001

System: 1-methylpropyl chloride; phases: Liquid
Property: Viscosity, Pa*s (Liquid); method: Capillary tube (Ostwald; Ubbelohde) method
Temperature, K	Pressure, kPa	Viscosity, Pa*s	uncertainty
283.15	101	.0004631	
288.15	101	.0004365	
293.15	101	.0004167	
298.15	101	.0003993	
303.15	101	.00038	
308.15	101	.0003615	
313.15	101	.0003443	

System: 1-methylpropyl chloride; phases: Liquid
Property: Mass density, kg/m3 (Liquid); method: Vibrating tube method
Temperature, K	Pressure, kPa	Mass density, kg/m3	uncertainty
283.15	101.3	884.34	.001
288.15	101.3	878.756	.001
293.15	101.3	873.13	.001
298.15	101.3	867.474	.001
303.15	101.3	861.779	.001
308.15	101.3	856.044	.001
313.15	101.3	850.266	.001

System: 2-methyl-2-chloropropane; phases: Liquid
Property: Viscosity, Pa*s (Liquid); method: Capillary tube (Ostwald; Ubbelohde) method
Temperature, K	Pressure, kPa	Viscosity, Pa*s	uncertainty
283.15	101	.000598	
288.15	101	.0005538	
293.15	101	.0005135	
298.15	101	.0004768	
303.15	101	.0004438	
308.15	101	.0004196	
313.15	101	.0003904	

System: 2-methyl-2-chloropropane; phases: Liquid
Property: Mass density, kg/m3 (Liquid); method: Vibrating tube method
Temperature, K	Pressure, kPa	Mass density, kg/m3	uncertainty
283.15	101.3	855.249	.001
288.15	101.3	849.243	.001
293.15	101.3	843.191	.001
298.15	101.3	837.096	.001
303.15	101.3	830.958	.001
308.15	101.3	824.772	.001
313.15	101.3	818.536	.001

System: isopropyl ether; phases: Liquid
Property: Viscosity, Pa*s (Liquid); method: Capillary tube (Ostwald; Ubbelohde) method
Temperature, K	Pressure, kPa	Viscosity, Pa*s	uncertainty
283.15	101	.0003646	
288.15	101	.0003486	
293.15	101	.000334	
298.15	101	.0003178	
303.15	101	.0003001	
308.15	101	.0002857	
313.15	101	.0002723	

System: isopropyl ether; phases: Liquid
Property: Mass density, kg/m3 (Liquid); method: Vibrating tube method
Temperature, K	Pressure, kPa	Mass density, kg/m3	uncertainty
283.15	101.3	733.833	.001
288.15	101.3	728.692	.001
293.15	101.3	723.509	.001
298.15	101.3	718.289	.001
303.15	101.3	713.032	.001
308.15	101.3	707.727	.001
313.15	101.3	702.378	.001

System: propane, 1-chloro-2-methyl-; phases: Liquid
Property: Viscosity, Pa*s (Liquid); method: Capillary tube (Ostwald; Ubbelohde) method
Temperature, K	Pressure, kPa	Viscosity, Pa*s	uncertainty
283.15	101	.0005155	
288.15	101	.0004833	
293.15	101	.000454	
298.15	101	.0004296	
303.15	101	.0004112	
308.15	101	.0003921	
313.15	101	.0003726	

System: propane, 1-chloro-2-methyl-; phases: Liquid
Property: Mass density, kg/m3 (Liquid); method: Vibrating tube method
Temperature, K	Pressure, kPa	Mass density, kg/m3	uncertainty
283.15	101.3	888.845	.001
288.15	101.3	883.211	.001
293.15	101.3	877.539	.001
298.15	101.3	871.533	.001
303.15	101.3	866.096	.001
308.15	101.3	860.319	.001
313.15	101.3	853.902	.001

System: isopropyl ether + 1-chlorobutane; phases: Liquid
Fixed: Pressure, kPa = 101
Property: Viscosity, Pa*s (Liquid); method: Capillary tube (Ostwald; Ubbelohde) method
Temperature, K	Mole fraction of 1-chlorobutane	Viscosity, Pa*s	uncertainty
283.15	0	.0003646	
283.15	.0466	.0003698	
283.15	.0991	.0003755	
283.15	.1918	.0003863	
283.15	.3234	.0004028	
283.15	.4199	.0004153	
283.15	.516	.0004283	
283.15	.623	.0004433	
283.15	.7154	.0004568	
283.15	.8157	.0004715	
283.15	.9098	.0004857	
283.15	.9559	.0004927	
283.15	1	.0004993	
288.15	0	.0003486	
288.15	.0466	.0003535	
288.15	.0991	.000359	
288.15	.1918	.0003689	
288.15	.3234	.0003838	
288.15	.4199	.0003951	
288.15	.516	.0004068	
288.15	.623	.0004202	
288.15	.7154	.0004321	
288.15	.8157	.0004453	
288.15	.9098	.0004579	
288.15	.9559	.0004641	
288.15	1	.0004701	
293.15	0	.000334	
293.15	.0466	.0003385	
293.15	.0991	.0003435	
293.15	.1918	.0003528	
293.15	.3234	.0003662	
293.15	.4199	.0003763	
293.15	.516	.0003868	
293.15	.623	.0003988	
293.15	.7154	.0004094	
293.15	.8157	.0004212	
293.15	.9098	.0004323	
293.15	.9559	.0004379	
293.15	1	.0004433	
298.15	0	.0003178	
298.15	.0466	.0003222	
298.15	.0991	.0003273	
298.15	.1918	.000336	
298.15	.3234	.0003487	
298.15	.4199	.0003583	
298.15	.516	.0003682	
298.15	.623	.0003793	
298.15	.7154	.0003893	
298.15	.8157	.0004003	
298.15	.9098	.000411	
298.15	.9559	.0004162	
298.15	1	.0004214	
303.15	0	.0003001	
303.15	.0466	.0003048	
303.15	.0991	.0003098	
303.15	.1918	.0003188	
303.15	.3234	.0003318	
303.15	.4199	.0003415	
303.15	.516	.0003514	
303.15	.623	.0003628	
303.15	.7154	.0003726	
303.15	.8157	.0003837	
303.15	.9098	.0003944	
303.15	.9559	.0003998	
303.15	1	.000405	
308.15	0	.0002857	
308.15	.0466	.0002903	
308.15	.0991	.0002953	
308.15	.1918	.0003043	
308.15	.3234	.000317	
308.15	.4199	.0003266	
308.15	.516	.0003362	
308.15	.623	.0003472	
308.15	.7154	.0003569	
308.15	.8157	.0003677	
308.15	.9098	.0003781	
308.15	.9559	.0003833	
308.15	1	.0003885	
313.15	0	.0002723	
313.15	.0466	.0002765	
313.15	.0991	.0002811	
313.15	.1918	.0002891	
313.15	.3234	.0003005	
313.15	.4199	.000309	
313.15	.516	.0003175	
313.15	.623	.0003274	
313.15	.7154	.0003359	
313.15	.8157	.0003456	
313.15	.9098	.0003548	
313.15	.9559	.0003594	
313.15	1	.0003642	

System: isopropyl ether + 1-chlorobutane; phases: Liquid
Fixed: Pressure, kPa = 101.3
Property: Mass density, kg/m3 (Liquid); method: Vibrating tube method
Temperature, K	Mole fraction of 1-chlorobutane	Mass density, kg/m3	uncertainty
283.15	0	733.833	.001
283.15	.0466	740.095	.001
283.15	.0991	747.139	.001
283.15	.1918	759.833	.001
283.15	.3234	778.726	.001
283.15	.4199	793.339	.001
283.15	.516	808.586	.001
283.15	.623	826.434	.001
283.15	.7154	842.63	.001
283.15	.8157	861.003	.001
283.15	.9098	879.099	.001
283.15	.9559	888.28	.001
283.15	1	897.339	.001
288.15	0	728.692	.001
288.15	.0466	734.99	.001
288.15	.0991	741.966	.001
288.15	.1918	754.629	.001
288.15	.3234	773.471	.001
288.15	.4199	788.055	.001
288.15	.516	803.274	.001
288.15	.623	821.073	.001
288.15	.7154	837.246	.001
288.15	.8157	855.588	.001
288.15	.9098	873.635	.001
288.15	.9559	882.81	.001
288.15	1	891.855	.001
293.15	0	723.509	.001
293.15	.0466	729.792	.001
293.15	.0991	736.75	.001
293.15	.1918	749.383	.001
293.15	.3234	768.192	.001
293.15	.4199	782.731	.001
293.15	.516	797.924	.001
293.15	.623	815.68	.001
293.15	.7154	831.821	.001
293.15	.8157	850.133	.001
293.15	.9098	868.142	.001
293.15	.9559	877.303	.001
293.15	1	886.335	.001
298.15	0	718.289	.001
298.15	.0466	724.56	.001
298.15	.0991	731.492	.001
298.15	.1918	744.091	.001
298.15	.3234	762.854	.001
298.15	.4199	777.351	.001
298.15	.516	792.506	.001
298.15	.623	810.177	.001
298.15	.7154	826.321	.001
298.15	.8157	844.587	.001
298.15	.9098	862.556	.001
298.15	.9559	871.691	.001
298.15	1	880.705	.001
303.15	0	713.032	.001
303.15	.0466	719.283	.001
303.15	.0991	726.204	.001
303.15	.1918	738.777	.001
303.15	.3234	757.526	.001
303.15	.623	804.761	.001
303.15	.7154	820.882	.001
303.15	.8157	839.124	.001
303.15	.9098	857.076	.001
303.15	.9559	866.204	.001
303.15	.4199	771.984	.001
303.15	.516	787.119	.001
303.15	1	875.204	.001
308.15	0	707.727	.001
308.15	.0466	713.967	.001
308.15	.0991	720.87	.001
308.15	.1918	733.414	.001
308.15	.3234	752.126	.001
308.15	.4199	766.553	.001
308.15	.516	781.656	.001
308.15	.623	799.266	.001
308.15	.7154	815.358	.001
308.15	.8157	833.567	.001
308.15	.9098	851.486	.001
308.15	.9559	860.595	.001
308.15	1	869.585	.001
313.15	0	702.378	.001
313.15	.0466	708.604	.001
313.15	.0991	715.486	.001
313.15	.1918	728.002	.001
313.15	.3234	746.649	.001
313.15	.4199	761.063	.001
313.15	.516	776.136	.001
313.15	.623	793.704	.001
313.15	.7154	809.769	.001
313.15	.8157	827.935	.001
313.15	.9098	845.816	.001
313.15	.9559	854.913	.001
313.15	1	863.882	.001

System: 1-methylpropyl chloride + isopropyl ether; phases: Liquid
Fixed: Pressure, kPa = 101
Property: Viscosity, Pa*s (Liquid); method: Capillary tube (Ostwald; Ubbelohde) method
Temperature, K	Mole fraction of 1-methylpropyl chloride	Viscosity, Pa*s	uncertainty
283.15	0	.0003646	
283.15	.0519	.0003683	
283.15	.0988	.0003716	
283.15	.2006	.0003796	
283.15	.3211	.0003899	
283.15	.4201	.0003991	
283.15	.532	.0004101	
283.15	.6244	.0004199	
283.15	.726	.000431	
283.15	.8163	.0004413	
283.15	.8817	.0004489	
283.15	.9634	.0004587	
283.15	1	.0004631	
288.15	0	.0003486	
288.15	.0519	.0003519	
288.15	.0988	.0003549	
288.15	.2006	.0003621	
288.15	.3211	.0003713	
288.15	.4201	.0003795	
288.15	.532	.0003894	
288.15	.6244	.000398	
288.15	.726	.000408	
288.15	.8163	.0004172	
288.15	.8817	.000424	
288.15	.9634	.0004326	
288.15	1	.0004365	
293.15	0	.000334	
293.15	.0519	.0003371	
293.15	.0988	.00034	
293.15	.2006	.0003468	
293.15	.3211	.0003555	
293.15	.4201	.0003632	
293.15	.532	.0003725	
293.15	.6244	.0003806	
293.15	.726	.00039	
293.15	.8163	.0003987	
293.15	.8817	.0004051	
293.15	.9634	.0004131	
293.15	1	.0004167	
298.15	0	.0003178	
298.15	.0519	.000321	
298.15	.0988	.0003239	
298.15	.2006	.0003306	
298.15	.3211	.0003392	
298.15	.4201	.0003467	
298.15	.532	.0003559	
298.15	.6244	.0003639	
298.15	.726	.0003731	
298.15	.8163	.0003817	
298.15	.8817	.0003879	
298.15	.9634	.0003959	
298.15	1	.0003993	
303.15	0	.0003001	
303.15	.0519	.0003033	
303.15	.0988	.0003061	
303.15	.2006	.0003127	
303.15	.3211	.0003212	
303.15	.4201	.0003286	
303.15	.532	.0003375	
303.15	.6244	.0003454	
303.15	.726	.0003545	
303.15	.8163	.0003628	
303.15	.8817	.000369	
303.15	.9634	.0003767	
303.15	1	.00038	
308.15	0	.0002857	
308.15	.0519	.0002887	
308.15	.0988	.0002915	
308.15	.2006	.0002977	
308.15	.3211	.0003058	
308.15	.4201	.0003127	
308.15	.532	.0003212	
308.15	.6244	.0003287	
308.15	.726	.0003374	
308.15	.8163	.0003453	
308.15	.8817	.0003511	
308.15	.9634	.0003584	
308.15	1	.0003615	
313.15	0	.0002723	
313.15	.0519	.0002752	
313.15	.0988	.0002779	
313.15	.2006	.0002838	
313.15	.3211	.0002914	
313.15	.4201	.0002981	
313.15	.532	.0003062	
313.15	.6244	.0003133	
313.15	.726	.0003215	
313.15	.8163	.000329	
313.15	.8817	.0003345	
313.15	.9634	.0003413	
313.15	1	.0003443	

System: 1-methylpropyl chloride + isopropyl ether; phases: Liquid
Fixed: Pressure, kPa = 101.3
Property: Mass density, kg/m3 (Liquid); method: Vibrating tube method
Temperature, K	Mole fraction of 1-methylpropyl chloride	Mass density, kg/m3	uncertainty
283.15	0	733.833	.001
283.15	.0519	740.159	.001
283.15	.0988	745.897	.001
283.15	.2006	758.792	.001
283.15	.3211	774.756	.001
283.15	.4201	788.575	.001
283.15	.532	804.971	.001
283.15	.6244	819.223	.001
283.15	.726	835.602	.001
283.15	.8163	850.907	.001
283.15	.8817	862.411	.001
283.15	.9634	877.39	.001
283.15	1	884.34	.001
288.15	0	728.692	.001
288.15	.0519	734.981	.001
288.15	.0988	740.712	.001
288.15	.2006	753.569	.001
288.15	.3211	769.483	.001
288.15	.4201	783.251	.001
288.15	.532	799.602	.001
288.15	.6244	813.814	.001
288.15	.726	830.144	.001
288.15	.8163	845.414	.001
288.15	.8817	856.901	.001
288.15	.9634	871.819	.001
288.15	1	878.756	.001
293.15	0	723.509	.001
293.15	.0519	729.792	.001
293.15	.0988	735.485	.001
293.15	.2006	748.303	.001
293.15	.3211	764.161	.001
293.15	.6244	808.369	.001
293.15	.726	824.657	.001
293.15	.8163	839.877	.001
293.15	.8817	851.332	.001
293.15	.9634	866.214	.001
293.15	.4201	777.889	.001
293.15	1	873.13	.001
298.15	0	718.289	.001
298.15	.0519	724.535	.001
298.15	.0988	730.22	.001
298.15	.2006	742.995	.001
298.15	.3211	758.802	.001
298.15	.4201	772.485	.001
298.15	.532	788.75	.001
298.15	.6244	802.882	.001
298.15	.726	819.123	.001
298.15	.8163	834.307	.001
298.15	.8817	845.724	.001
298.15	.9634	860.57	.001
298.15	1	867.474	.001
303.15	0	713.032	.001
303.15	.0519	719.276	.001
303.15	.0988	724.919	.001
303.15	.2006	737.649	.001
303.15	.3211	753.411	.001
303.15	.4201	767.06	.001
303.15	.532	783.263	.001
303.15	.6244	797.355	.001
303.15	.726	813.555	.001
303.15	.8163	828.698	.001
303.15	.8817	840.084	.001
303.15	.9634	854.895	.001
303.15	1	861.779	.001
308.15	0	707.727	.001
308.15	.0519	713.939	.001
308.15	.0988	719.569	.001
308.15	.2006	732.261	.001
308.15	.3211	747.973	.001
308.15	.4201	761.571	.001
308.15	.532	777.737	.001
308.15	.6244	791.784	.001
308.15	.726	807.944	.001
308.15	.8163	823.046	.001
308.15	.8817	834.402	.001
308.15	.9634	849.179	.001
308.15	1	856.044	.001
313.15	0	702.378	.001
313.15	.0519	708.573	.001
313.15	.0988	714.181	.001
313.15	.2006	726.833	.001
313.15	.3211	742.484	.001
313.15	.4201	756.049	.001
313.15	.532	772.166	.001
313.15	.6244	786.18	.001
313.15	.726	802.287	.001
313.15	.8163	817.349	.001
313.15	.8817	828.683	.001
313.15	.9634	843.42	.001
313.15	1	850.266	.001

System: isopropyl ether + propane, 1-chloro-2-methyl-; phases: Liquid
Fixed: Pressure, kPa = 101
Property: Viscosity, Pa*s (Liquid); method: Capillary tube (Ostwald; Ubbelohde) method
Temperature, K	Mole fraction of propane, 1-chloro-2-methyl-	Viscosity, Pa*s	uncertainty
283.15	0	.0003646	
283.15	.0549	.0003695	
283.15	.091	.0003728	
283.15	.1977	.0003837	
283.15	.2934	.0003947	
283.15	.3911	.0004069	
283.15	.5137	.000424	
283.15	.6034	.000438	
283.15	.6769	.0004502	
283.15	.8059	.0004739	
283.15	.9111	.0004955	
283.15	.9646	.0005074	
283.15	1	.0005155	
288.15	0	.0003486	
288.15	.0549	.0003532	
288.15	.091	.0003565	
288.15	.1977	.0003666	
288.15	.2934	.0003765	
288.15	.3911	.0003876	
288.15	.5137	.000403	
288.15	.6034	.0004152	
288.15	.6769	.0004261	
288.15	.8059	.000447	
288.15	.9111	.0004658	
288.15	.9646	.0004761	
288.15	1	.0004833	
293.15	0	.000334	
293.15	.0549	.0003383	
293.15	.091	.0003412	
293.15	.1977	.0003504	
293.15	.2934	.0003595	
293.15	.3911	.0003694	
293.15	.5137	.0003831	
293.15	.6034	.0003941	
293.15	.6769	.0004038	
293.15	.8059	.0004222	
293.15	.9111	.0004386	
293.15	.9646	.0004478	
293.15	1	.000454	
298.15	0	.0003178	
298.15	.0549	.0003219	
298.15	.091	.0003247	
298.15	.1977	.0003337	
298.15	.2934	.0003423	
298.15	.3911	.0003515	
298.15	.5137	.0003644	
298.15	.6034	.0003747	
298.15	.6769	.0003834	
298.15	.8059	.0004003	
298.15	.9111	.0004156	
298.15	.9646	.0004238	
298.15	1	.0004296	
303.15	0	.0003001	
303.15	.0549	.0003043	
303.15	.091	.0003069	
303.15	.1977	.000316	
303.15	.2934	.0003246	
303.15	.3911	.0003341	
303.15	.5137	.0003469	
303.15	.6034	.000357	
303.15	.6769	.0003659	
303.15	.8059	.0003826	
303.15	.9111	.0003975	
303.15	.9646	.0004058	
303.15	1	.0004112	
308.15	0	.0002857	
308.15	.0549	.0002896	
308.15	.091	.0002926	
308.15	.1977	.0003012	
308.15	.2934	.0003094	
308.15	.3911	.0003184	
308.15	.5137	.0003308	
308.15	.6034	.0003404	
308.15	.6769	.0003489	
308.15	.8059	.0003647	
308.15	.9111	.0003791	
308.15	.9646	.0003867	
308.15	1	.0003921	
313.15	0	.0002723	
313.15	.0549	.0002761	
313.15	.091	.0002788	
313.15	.1977	.000287	
313.15	.2934	.0002948	
313.15	.3911	.0003033	
313.15	.5137	.000315	
313.15	.6034	.000324	
313.15	.6769	.0003322	
313.15	.8059	.0003472	
313.15	.9111	.0003607	
313.15	.9646	.0003677	
313.15	1	.0003726	

System: isopropyl ether + propane, 1-chloro-2-methyl-; phases: Liquid
Fixed: Pressure, kPa = 101.3
Property: Mass density, kg/m3 (Liquid); method: Vibrating tube method
Temperature, K	Mole fraction of propane, 1-chloro-2-methyl-	Mass density, kg/m3	uncertainty
283.15	0	733.833	.001
283.15	.0549	740.509	.001
283.15	.091	745.071	.001
283.15	.1977	758.96	.001
283.15	.6034	818.258	.001
283.15	.6769	830.206	.001
283.15	.8059	852.473	.001
283.15	.9111	871.773	.001
283.15	.2934	772.077	.001
283.15	.3911	785.941	.001
283.15	.5137	804.21	.001
283.15	.9646	881.981	.001
283.15	1	888.845	.001
288.15	0	728.692	.001
288.15	.0549	735.346	.001
288.15	.091	739.888	.001
288.15	.1977	753.737	.001
288.15	.2934	766.807	.001
288.15	.3911	780.617	.001
288.15	.5137	798.831	.001
288.15	.6034	812.821	.001
288.15	.6769	824.734	.001
288.15	.8059	846.936	.001
288.15	.9111	866.179	.001
288.15	.9646	876.368	.001
288.15	1	883.211	.001
293.15	0	723.509	.001
293.15	.0549	730.142	.001
293.15	.091	734.678	.001
293.15	.1977	748.467	.001
293.15	.2934	761.481	.001
293.15	.3911	775.245	.001
293.15	.5137	793.406	.001
293.15	.6034	807.35	.001
293.15	.6769	819.228	.001
293.15	.8059	841.356	.001
293.15	.9111	860.549	.001
293.15	.9646	870.717	.001
293.15	1	877.539	.001
298.15	0	718.289	.001
298.15	.0549	724.887	.001
298.15	.091	729.395	.001
298.15	.1977	743.114	.001
298.15	.2934	756.06	.001
298.15	.3911	769.763	.001
298.15	.5137	787.825	.001
298.15	.6034	801.699	.001
298.15	.6769	813.519	.001
298.15	.8059	835.53	.001
298.15	.9111	854.603	.001
298.15	.9646	864.749	.001
298.15	1	871.533	.001
303.15	0	713.032	.001
303.15	.0549	719.603	.001
303.15	.091	724.11	.001
303.15	.1977	737.798	.001
303.15	.2934	750.738	.001
303.15	.3911	764.421	.001
303.15	.5137	782.446	.001
303.15	.6034	796.305	.001
303.15	.6769	808.11	.001
303.15	.8059	830.111	.001
303.15	.9111	849.196	.001
303.15	.9646	859.307	.001
303.15	1	866.096	.001
308.15	0	707.727	.001
308.15	.0549	714.28	.001
308.15	.091	718.759	.001
308.15	.1977	732.397	.001
308.15	.6034	790.719	.001
308.15	.6769	802.492	.001
308.15	.8059	824.422	.001
308.15	.9111	843.468	.001
308.15	.2934	745.3	.001
308.15	.3911	758.935	.001
308.15	.5137	776.901	.001
308.15	.9646	853.542	.001
308.15	1	860.319	.001
313.15	0	702.378	.001
313.15	.0549	708.887	.001
313.15	.091	713.334	.001
313.15	.1977	726.882	.001
313.15	.2934	739.693	.001
313.15	.3911	753.227	.001
313.15	.5137	771.077	.001
313.15	.6034	784.802	.001
313.15	.6769	796.487	.001
313.15	.8059	818.264	.001
313.15	.9111	837.168	.001
313.15	.9646	847.176	.001
313.15	1	853.902	.001

System: isopropyl ether + 2-methyl-2-chloropropane; phases: Liquid
Fixed: Pressure, kPa = 101
Property: Viscosity, Pa*s (Liquid); method: Capillary tube (Ostwald; Ubbelohde) method
Temperature, K	Mole fraction of 2-methyl-2-chloropropane	Viscosity, Pa*s	uncertainty
283.15	0	.0003646	
283.15	.049	.0003693	
283.15	.0996	.0003746	
283.15	.1991	.000386	
283.15	.3212	.0004025	
283.15	.4189	.0004183	
283.15	.5148	.0004365	
283.15	.6213	.0004606	
283.15	.7152	.0004862	
283.15	.8138	.0005182	
283.15	.9079	.000555	
283.15	.9552	.0005761	
283.15	1	.000598	
288.15	0	.0003486	
288.15	.049	.0003531	
288.15	.0996	.000358	
288.15	.1991	.0003683	
288.15	.3212	.0003827	
288.15	.4189	.0003963	
288.15	.5148	.000412	
288.15	.6213	.0004328	
288.15	.7152	.0004549	
288.15	.8138	.0004829	
288.15	.9079	.0005154	
288.15	.9552	.0005342	
288.15	1	.0005538	
293.15	0	.000334	
293.15	.049	.0003381	
293.15	.0996	.0003425	
293.15	.1991	.0003515	
293.15	.3212	.0003641	
293.15	.4189	.000376	
293.15	.5148	.0003894	
293.15	.6213	.0004075	
293.15	.7152	.0004268	
293.15	.8138	.0004512	
293.15	.9079	.0004796	
293.15	.9552	.0004962	
293.15	1	.0005135	
298.15	0	.0003178	
298.15	.049	.0003217	
298.15	.0996	.0003258	
298.15	.1991	.0003342	
298.15	.3212	.0003458	
298.15	.4189	.0003564	
298.15	.5148	.0003686	
298.15	.6213	.0003845	
298.15	.7152	.0004014	
298.15	.8138	.0004229	
298.15	.9079	.0004476	
298.15	.9552	.0004619	
298.15	1	.0004768	
303.15	0	.0003001	
303.15	.049	.000304	
303.15	.0996	.000308	
303.15	.1991	.0003164	
303.15	.3212	.0003277	
303.15	.4189	.0003379	
303.15	.5148	.0003492	
303.15	.6213	.0003639	
303.15	.7152	.0003791	
303.15	.8138	.0003979	
303.15	.9079	.0004191	
303.15	.9552	.0004313	
303.15	1	.0004438	
308.15	0	.0002857	
308.15	.049	.0002892	
308.15	.0996	.0002928	
308.15	.1991	.0003006	
308.15	.3212	.0003115	
308.15	.4189	.0003216	
308.15	.5148	.0003327	
308.15	.6213	.0003468	
308.15	.7152	.0003613	
308.15	.8138	.0003787	
308.15	.9079	.000398	
308.15	.9552	.0004087	
308.15	1	.0004196	
313.15	0	.0002723	
313.15	.049	.0002751	
313.15	.0996	.0002783	
313.15	.1991	.0002856	
313.15	.3212	.0002963	
313.15	.4189	.0003061	
313.15	.5148	.0003171	
313.15	.6213	.0003306	
313.15	.7152	.0003436	
313.15	.8138	.0003586	
313.15	.9079	.0003741	
313.15	.9552	.0003824	
313.15	1	.0003904	

System: isopropyl ether + 2-methyl-2-chloropropane; phases: Liquid
Fixed: Pressure, kPa = 101.3
Property: Mass density, kg/m3 (Liquid); method: Vibrating tube method
Temperature, K	Mole fraction of 2-methyl-2-chloropropane	Mass density, kg/m3	uncertainty
283.15	0	733.833	.001
283.15	.049	738.51	.001
283.15	.0996	743.477	.001
283.15	.1991	753.625	.001
283.15	.3212	766.738	.001
283.15	.4189	777.752	.001
283.15	.5148	789.053	.001
283.15	.6213	802.211	.001
283.15	.7152	814.386	.001
283.15	.8138	827.842	.001
283.15	.9079	841.347	.001
283.15	.9552	848.401	.001
283.15	1	855.249	.001
288.15	0	728.692	.001
288.15	.049	733.338	.001
288.15	.0996	738.271	.001
288.15	.1991	748.35	.001
288.15	.3212	761.373	.001
288.15	.4189	772.308	.001
288.15	.5148	783.527	.001
288.15	.6213	796.59	.001
288.15	.7152	808.683	.001
288.15	.8138	822.038	.001
288.15	.9079	835.446	.001
288.15	.9552	842.442	.001
288.15	1	849.243	.001
293.15	0	723.509	.001
293.15	.049	728.121	.001
293.15	.0996	733.024	.001
293.15	.1991	743.024	.001
293.15	.3212	755.959	.001
293.15	.4189	766.815	.001
293.15	.5148	777.959	.001
293.15	.6213	790.929	.001
293.15	.7152	802.935	.001
293.15	.8138	816.186	.001
293.15	.9079	829.489	.001
293.15	.9552	836.437	.001
293.15	1	843.191	.001
298.15	0	718.289	.001
298.15	.049	722.867	.001
298.15	.0996	727.738	.001
298.15	.1991	737.666	.001
298.15	.3212	750.506	.001
298.15	.6213	785.231	.001
298.15	.7152	797.145	.001
298.15	.8138	810.301	.001
298.15	.9079	823.502	.001
298.15	.9552	830.397	.001
298.15	.4189	761.288	.001
298.15	.5148	772.351	.001
298.15	1	837.096	.001
303.15	0	713.032	.001
303.15	.049	717.578	.001
303.15	.0996	722.412	.001
303.15	.1991	732.264	.001
303.15	.3212	745.013	.001
303.15	.4189	755.716	.001
303.15	.5148	766.702	.001
303.15	.6213	779.484	.001
303.15	.7152	791.308	.001
303.15	.8138	804.365	.001
303.15	.9079	817.467	.001
303.15	.9552	824.312	.001
303.15	1	830.958	.001
308.15	0	707.727	.001
308.15	.049	712.24	.001
308.15	.0996	717.039	.001
308.15	.1991	726.821	.001
308.15	.3212	739.479	.001
308.15	.4189	750.102	.001
308.15	.5148	761.005	.001
308.15	.6213	773.688	.001
308.15	.7152	785.436	.001
308.15	.8138	798.392	.001
308.15	.9079	811.393	.001
308.15	.9552	818.179	.001
308.15	1	824.772	.001
313.15	0	702.378	.001
313.15	.049	706.856	.001
313.15	.0996	711.61	.001
313.15	.1991	721.328	.001
313.15	.3212	733.893	.001
313.15	.4189	744.44	.001
313.15	.5148	755.257	.001
313.15	.6213	767.848	.001
313.15	.7152	779.502	.001
313.15	.8138	792.362	.001
313.15	.9079	805.256	.001
313.15	.9552	811.996	.001
313.15	1	818.536	.001
