Measured thermophysical data. Viscosity Behavior of alpha-Amino Acids in Acetate Salt Solutions at Temperatures (303.15 to 323.15) K
Source: Int. J. Thermophys., 2012, 10.1007/s10765-011-1111-y
Compound 1: L-lysine monohydrochloride, C6H15ClN2O2
Compound 2: L-alanine, 3-(1H-imidazol-4-yl)-, C6H9N3O2
Compound 3: L-arginine, C6H14N4O2
Compound 4: anhydrous sodium acetate, C2H3NaO2
Compound 5: acetic acid, potassium salt, C2H3KO2
Compound 6: water, H2O
Compound 7: calcium acetate, C4H8CaO4

System: anhydrous sodium acetate + L-lysine monohydrochloride + water; phases: Liquid
Fixed: Pressure, kPa = 101
Property: Viscosity, Pa*s (Liquid); method: Capillary tube (Ostwald; Ubbelohde) method
Temperature, K	Molality, mol/kg of L-lysine monohydrochloride	Solvent: Molality, mol/kg of anhydrous sodium acetate	Viscosity, Pa*s	uncertainty
303.15	0	1	.001095	.000001
303.15	.0291	1	.001107	.000001
303.15	.0584	1	.001118	.000001
303.15	.088	1	.0011284	.000001
303.15	.1181	1	.0011409	.000001
303.15	.148	1	.0011611	.000001
308.15	0	1	.001005	.000001
308.15	.0291	1	.000998	.000001
308.15	.0584	1	.001022	.000001
308.15	.088	1	.001029	.000001
308.15	.1181	1	.001039	.000001
308.15	.148	1	.0010569	.000001
313.15	0	1	.0009052	.000001
313.15	.0291	1	.0009121	.000001
313.15	.0584	1	.000929	.000001
313.15	.088	1	.000947	.000001
313.15	.1181	1	.000958	.000001
313.15	.148	1	.000979	.000001
318.15	0	1	.000801	.000001
318.15	.0291	1	.0008259	.000001
318.15	.0584	1	.0008401	.000001
318.15	.088	1	.0008587	.000001
318.15	.1181	1	.0008703	.000001
318.15	.148	1	.0009	.000001
323.15	0	1	.000721	.000001
323.15	.0291	1	.000737	.000001
323.15	.0584	1	.000756	.000001
323.15	.088	1	.000779	.000001
323.15	.1181	1	.0008029	.000001
323.15	.148	1	.000827	.000001

System: acetic acid, potassium salt + L-lysine monohydrochloride + water; phases: Liquid
Fixed: Pressure, kPa = 101
Property: Viscosity, Pa*s (Liquid); method: Capillary tube (Ostwald; Ubbelohde) method
Temperature, K	Molality, mol/kg of L-lysine monohydrochloride	Solvent: Molality, mol/kg of acetic acid, potassium salt	Viscosity, Pa*s	uncertainty
303.15	0	1	.000975	.000001
303.15	.0289	1	.0009916	.000001
303.15	.058	1	.001019	.000001
303.15	.0879	1	.001033	.000001
303.15	.1173	1	.001049	.000001
303.15	.147	1	.001059	.000001
308.15	0	1	.0008864	.000001
308.15	.0289	1	.0009084	.000001
308.15	.058	1	.000923	.000001
308.15	.0879	1	.000934	.000001
308.15	.1173	1	.000944	.000001
308.15	.147	1	.0009631	.000001
313.15	0	1	.000805	.000001
313.15	.0289	1	.0008159	.000001
313.15	.058	1	.0008234	.000001
313.15	.0879	1	.0008314	.000001
313.15	.1173	1	.000862	.000001
313.15	.147	1	.000887	.000001
318.15	0	1	.000719	.000001
318.15	.0289	1	.0007436	.000001
318.15	.058	1	.0007532	.000001
318.15	.0879	1	.0007701	.000001
318.15	.1173	1	.0007854	.000001
318.15	.147	1	.0008146	.000001
323.15	0	1	.000655	.000001
323.15	.0289	1	.000667	.000001
323.15	.058	1	.0006891	.000001
323.15	.0879	1	.0007029	.000001
323.15	.1173	1	.0007118	.000001
323.15	.147	1	.000728	.000001

System: calcium acetate + L-lysine monohydrochloride + water; phases: Liquid
Fixed: Pressure, kPa = 101
Property: Viscosity, Pa*s (Liquid); method: Capillary tube (Ostwald; Ubbelohde) method
Temperature, K	Molality, mol/kg of L-lysine monohydrochloride	Solvent: Molality, mol/kg of calcium acetate	Viscosity, Pa*s	uncertainty
303.15	0	1	.001545	.000001
303.15	.0281	1	.001568	.000001
303.15	.0564	1	.0016033	.000001
303.15	.085	1	.001634	.000001
303.15	.1141	1	.001648	.000001
303.15	.1429	1	.001676	.000001
308.15	0	1	.0014121	.000001
308.15	.0281	1	.0014171	.000001
308.15	.0564	1	.001458	.000001
308.15	.085	1	.001488	.000001
308.15	.1141	1	.001509	.000001
308.15	.1429	1	.001535	.000001
313.15	0	1	.001265	.000001
313.15	.0281	1	.001287	.000001
313.15	.0564	1	.001317	.000001
313.15	.085	1	.0013512	.000001
313.15	.1141	1	.001353	.000001
313.15	.1429	1	.0014025	.000001
318.15	0	1	.0011274	.000001
318.15	.0281	1	.0011371	.000001
318.15	.0564	1	.001168	.000001
318.15	.085	1	.001196	.000001
318.15	.1141	1	.001214	.000001
318.15	.1429	1	.001248	.000001
323.15	0	1	.000999	.000001
323.15	.0281	1	.001018	.000001
323.15	.0564	1	.001038	.000001
323.15	.085	1	.001061	.000001
323.15	.1141	1	.00108	.000001
323.15	.1429	1	.001123	.000001

System: L-arginine + anhydrous sodium acetate + water; phases: Liquid
Fixed: Pressure, kPa = 101
Property: Viscosity, Pa*s (Liquid); method: Capillary tube (Ostwald; Ubbelohde) method
Temperature, K	Molality, mol/kg of L-arginine	Solvent: Molality, mol/kg of anhydrous sodium acetate	Viscosity, Pa*s	uncertainty
303.15	0	1	.001095	.000001
303.15	.0291	1	.001124	.000001
303.15	.0585	1	.001132	.000001
303.15	.0882	1	.001157	.000001
303.15	.1179	1	.001174	.000001
303.15	.1478	1	.0011985	.000001
308.15	0	1	.001005	.000001
308.15	.0291	1	.0010166	.000001
308.15	.0585	1	.0010342	.000001
308.15	.0882	1	.0010585	.000001
308.15	.1179	1	.0010721	.000001
308.15	.1478	1	.00111	.000001
313.15	0	1	.0009052	.000001
313.15	.0291	1	.000922	.000001
313.15	.0585	1	.000936	.000001
313.15	.0882	1	.00096	.000001
313.15	.1179	1	.000977	.000001
313.15	.1478	1	.001004	.000001
318.15	0	1	.000801	.000001
318.15	.0291	1	.000817	.000001
318.15	.0585	1	.00083	.000001
318.15	.0882	1	.000863	.000001
318.15	.1179	1	.000874	.000001
318.15	.1478	1	.000899	.000001
323.15	0	1	.000721	.000001
323.15	.0291	1	.000729	.000001
323.15	.0585	1	.000745	.000001
323.15	.0882	1	.000769	.000001
323.15	.1179	1	.000792	.000001
323.15	.1478	1	.000816	.000001

System: L-arginine + acetic acid, potassium salt + water; phases: Liquid
Fixed: Pressure, kPa = 101
Property: Viscosity, Pa*s (Liquid); method: Capillary tube (Ostwald; Ubbelohde) method
Temperature, K	Molality, mol/kg of L-arginine	Solvent: Molality, mol/kg of acetic acid, potassium salt	Viscosity, Pa*s	uncertainty
303.15	0	1	.000975	.000001
303.15	.0289	1	.000984	.000001
303.15	.0581	1	.001003	.000001
303.15	.0874	1	.001025	.000001
303.15	.1171	1	.0010371	.000001
303.15	.1471	1	.0010508	.000001
308.15	0	1	.0008864	.000001
308.15	.0289	1	.000903	.000001
308.15	.0581	1	.000923	.000001
308.15	.0874	1	.000939	.000001
308.15	.1171	1	.0009512	.000001
308.15	.1471	1	.000969	.000001
313.15	0	1	.000805	.000001
313.15	.0289	1	.000831	.000001
313.15	.0581	1	.0008451	.000001
313.15	.0874	1	.000867	.000001
313.15	.1171	1	.000877	.000001
313.15	.1471	1	.00089	.000001
318.15	0	1	.000719	.000001
318.15	.0289	1	.0007422	.000001
318.15	.0581	1	.0007612	.000001
318.15	.0874	1	.000775	.000001
318.15	.1171	1	.000795	.000001
318.15	.1471	1	.00082	.000001
323.15	0	1	.000655	.000001
323.15	.0289	1	.000669	.000001
323.15	.0581	1	.000686	.000001
323.15	.0874	1	.000709	.000001
323.15	.1171	1	.000723	.000001
323.15	.1471	1	.000738	.000001

System: calcium acetate + L-arginine + water; phases: Liquid
Fixed: Pressure, kPa = 101
Property: Viscosity, Pa*s (Liquid); method: Capillary tube (Ostwald; Ubbelohde) method
Temperature, K	Molality, mol/kg of L-arginine	Solvent: Molality, mol/kg of calcium acetate	Viscosity, Pa*s	uncertainty
303.15	0	1	.001563	.000001
303.15	.0281	1	.001576	.000001
303.15	.0565	1	.0016124	.000001
303.15	.0852	1	.001644	.000001
303.15	.1139	1	.001646	.000001
303.15	.1428	1	.001667	.000001
308.15	0	1	.0014121	.000001
308.15	.0281	1	.001434	.000001
308.15	.0565	1	.001466	.000001
308.15	.0852	1	.001501	.000001
308.15	.1139	1	.001508	.000001
308.15	.1428	1	.001528	.000001
313.15	0	1	.001265	.000001
313.15	.0281	1	.001284	.000001
313.15	.0565	1	.0013	.000001
313.15	.0852	1	.001337	.000001
313.15	.1139	1	.001352	.000001
313.15	.1428	1	.0013655	.000001
318.15	0	1	.0011274	.000001
318.15	.0281	1	.001141	.000001
318.15	.0565	1	.00116	.000001
318.15	.0852	1	.00119	.000001
318.15	.1139	1	.001209	.000001
318.15	.1428	1	.001232	.000001
323.15	0	1	.000999	.000001
323.15	.0281	1	.00101	.000001
323.15	.0565	1	.001027	.000001
323.15	.0852	1	.001061	.000001
323.15	.1139	1	.001073	.000001
323.15	.1428	1	.001092	.000001

System: L-alanine, 3-(1H-imidazol-4-yl)- + anhydrous sodium acetate + water; phases: Liquid
Fixed: Pressure, kPa = 101
Property: Viscosity, Pa*s (Liquid); method: Capillary tube (Ostwald; Ubbelohde) method
Temperature, K	Molality, mol/kg of L-alanine, 3-(1H-imidazol-4-yl)-	Solvent: Molality, mol/kg of anhydrous sodium acetate	Viscosity, Pa*s	uncertainty
303.15	0	1	.001095	.000001
303.15	.0291	1	.001101	.000001
303.15	.0585	1	.001125	.000001
303.15	.0879	1	.0011468	.000001
303.15	.109	1	.00116	.000001
303.15	.136	1	.001182	.000001
308.15	0	1	.001005	.000001
308.15	.0291	1	.001016	.000001
308.15	.0585	1	.001025	.000001
308.15	.0879	1	.001038	.000001
308.15	.109	1	.001058	.000001
308.15	.136	1	.001082	.000001
313.15	0	1	.0009052	.000001
313.15	.0291	1	.00092	.000001
313.15	.0585	1	.000932	.000001
313.15	.0879	1	.0009558	.000001
313.15	.109	1	.0009619	.000001
313.15	.136	1	.0009855	.000001
318.15	0	1	.000801	.000001
318.15	.0291	1	.000818	.000001
318.15	.0585	1	.000841	.000001
318.15	.0879	1	.00086	.000001
318.15	.109	1	.000868	.000001
318.15	.136	1	.0008926	.000001
323.15	0	1	.000721	.000001
323.15	.0291	1	.000734	.000001
323.15	.0585	1	.000748	.000001
323.15	.0879	1	.000764	.000001
323.15	.109	1	.000789	.000001
323.15	.136	1	.000822	.000001

System: L-alanine, 3-(1H-imidazol-4-yl)- + acetic acid, potassium salt + water; phases: Liquid
Fixed: Pressure, kPa = 101
Property: Viscosity, Pa*s (Liquid); method: Capillary tube (Ostwald; Ubbelohde) method
Temperature, K	Molality, mol/kg of L-alanine, 3-(1H-imidazol-4-yl)-	Solvent: Molality, mol/kg of acetic acid, potassium salt	Viscosity, Pa*s	uncertainty
303.15	0	1	.000975	.000001
303.15	.0289	1	.000981	.000001
303.15	.058	1	.001001	.000001
303.15	.0875	1	.001023	.000001
303.15	.1168	1	.001042	.000001
303.15	.1463	1	.001061	.000001
308.15	0	1	.0008864	.000001
308.15	.0289	1	.000895	.000001
308.15	.058	1	.000914	.000001
308.15	.0875	1	.000933	.000001
308.15	.1168	1	.0009445	.000001
308.15	.1463	1	.000965	.000001
313.15	0	1	.000805	.000001
313.15	.0289	1	.000814	.000001
313.15	.058	1	.000835	.000001
313.15	.0875	1	.000857	.000001
313.15	.1168	1	.000876	.000001
313.15	.1463	1	.0009017	.000001
318.15	0	1	.000719	.000001
318.15	.0289	1	.000729	.000001
318.15	.058	1	.000748	.000001
318.15	.0875	1	.000784	.000001
318.15	.1168	1	.000803	.000001
318.15	.1463	1	.000826	.000001
323.15	0	1	.000655	.000001
323.15	.0289	1	.000673	.000001
323.15	.058	1	.000688	.000001
323.15	.0875	1	.000707	.000001
323.15	.1168	1	.000729	.000001
323.15	.1463	1	.00076	.000001

System: calcium acetate + L-alanine, 3-(1H-imidazol-4-yl)- + water; phases: Liquid
Fixed: Pressure, kPa = 101
Property: Viscosity, Pa*s (Liquid); method: Capillary tube (Ostwald; Ubbelohde) method
Temperature, K	Molality, mol/kg of L-alanine, 3-(1H-imidazol-4-yl)-	Solvent: Molality, mol/kg of calcium acetate	Viscosity, Pa*s	uncertainty
303.15	0	1	.001563	.000001
303.15	.028	1	.001576	.000001
303.15	.0563	1	.0016	.000001
303.15	.085	1	.001624	.000001
303.15	.1132	1	.001645	.000001
303.15	.1415	1	.001674	.000001
308.15	0	1	.0014121	.000001
308.15	.028	1	.001429	.000001
308.15	.0563	1	.001446	.000001
308.15	.085	1	.0014635	.000001
308.15	.1132	1	.00148	.000001
308.15	.1415	1	.001532	.000001
313.15	0	1	.001265	.000001
313.15	.028	1	.0012601	.000001
313.15	.0563	1	.00128	.000001
313.15	.085	1	.001308	.000001
313.15	.1132	1	.001329	.000001
313.15	.1415	1	.001374	.000001
318.15	0	1	.0011274	.000001
318.15	.028	1	.001137	.000001
318.15	.0563	1	.001155	.000001
318.15	.085	1	.001174	.000001
318.15	.1132	1	.001189	.000001
318.15	.1415	1	.0012518	.000001
323.15	0	1	.000999	.000001
323.15	.028	1	.000974	.000001
323.15	.0563	1	.001001	.000001
323.15	.085	1	.001032	.000001
323.15	.1132	1	.00107	.000001
323.15	.1415	1	.001099	.000001

System: anhydrous sodium acetate + water; phases: Liquid
Property: Viscosity, Pa*s (Liquid); method: Capillary tube (Ostwald; Ubbelohde) method
Temperature, K	Molality, mol/kg of anhydrous sodium acetate	Pressure, kPa	Viscosity, Pa*s	uncertainty
303.15	1	101	.001095	.000001
308.15	1	101	.001005	.000001
313.15	1	101	.0009052	.000001
318.15	1	101	.000801	.000001
323.15	1	101	.000721	.000001

System: acetic acid, potassium salt + water; phases: Liquid
Property: Viscosity, Pa*s (Liquid); method: Capillary tube (Ostwald; Ubbelohde) method
Temperature, K	Molality, mol/kg of acetic acid, potassium salt	Pressure, kPa	Viscosity, Pa*s	uncertainty
303.15	1	101	.000975	.000001
308.15	1	101	.0008864	.000001
313.15	1	101	.000805	.000001
318.15	1	101	.000719	.000001
323.15	1	101	.000655	.000001

System: calcium acetate + water; phases: Liquid
Property: Viscosity, Pa*s (Liquid); method: Capillary tube (Ostwald; Ubbelohde) method
Temperature, K	Molality, mol/kg of calcium acetate	Pressure, kPa	Viscosity, Pa*s	uncertainty
303.15	1	101	.001545	.000001
308.15	1	101	.0014121	.000001
313.15	1	101	.001265	.000001
318.15	1	101	.0011274	.000001
323.15	1	101	.000999	.000001
303.15	1	101	.001563	.000001
