Measured thermophysical data. Electrical Conductivity and Viscosity  of 1-Hexyl-3-methylimidazolium  Bis(trifluorosulfonyl)imide, [C6mim] [(CF3SO2)2N]  (CASRN 382150-50-7)
Source: Int. J. Thermophys., 2010, 10.1007/s10765-009-0584-4
Compound 1: 1-hexyl-3-methylimidazolium bis[(trifluoromethyl)sulfonyl]imide, C12H19F6N3O4S2

System: 1-hexyl-3-methylimidazolium bis[(trifluoromethyl)sulfonyl]imide; phases: Liquid
Fixed: Pressure, kPa = 101.325
Property: Kinematic viscosity, m2/s (Liquid); method: Capillary tube (Ostwald; Ubbelohde) method
Temperature, K	Kinematic viscosity, m2/s	uncertainty
298.149	.00005062	.0000002531
303.151	.00004039	.00000020195
313.156	.00002698	.0000001349
323.149	.00001897	.00000009485
333.153	.00001392	.0000000696
343.15	.00001059	.00000005295

System: 1-hexyl-3-methylimidazolium bis[(trifluoromethyl)sulfonyl]imide; phases: Liquid
Fixed: Pressure, kPa = 101.325
Property: Electrical conductivity, S/m (Liquid); method: Parallel Plate Conductive Cell
Temperature, K	Electrical conductivity, S/m	uncertainty
298.15	.2174	.004348
303.15	.2682	.005364
308.15	.326	.00652
313.15	.391	.00782
323.15	.543	.01086
333.15	.7256	.014512
278.15	.0783	.001566
283.15	.1045	.00209
288.15	.1359	.002718
293.15	.1735	.00347
298.15	.2176	.004352
