Measured thermophysical data. Studies on Hydrogen-Bond Interactions in Ternary Mixtures of Polar Solvents by Dielectric Constant Measurements
Source: Int. J. Thermophys., 2011, 10.1007/s10765-011-1086-8
Compound 1: carbamaldehyde, CH3NO, purity 99%
Compound 2: N,N-dimethylformamide, C3H7NO, purity 99%
Compound 3: 1,4-dioxacyclohexane, C4H8O2, purity 99%
Compound 4: monoethanolamine, C2H7NO, purity 99%
Compound 5: water, H2O
Compound 6: methylsulfinylmethane, C2H6OS, purity 99%
Compound 7: ethanol, C2H6O, purity 99%

System: carbamaldehyde; phases: Liquid
Fixed: Pressure, kPa = 101
Property: Relative permittivity at various frequencies (Liquid); method: Parallel plate capacitor
Temperature, K	Frequency, MHz	Relative permittivity at various frequencies	uncertainty
303.15	1	106.14	.31842

System: N,N-dimethylformamide; phases: Liquid
Fixed: Pressure, kPa = 101
Property: Relative permittivity at various frequencies (Liquid); method: Parallel plate capacitor
Temperature, K	Frequency, MHz	Relative permittivity at various frequencies	uncertainty
303.15	1	36.55	.10965

System: 1,4-dioxacyclohexane; phases: Liquid
Fixed: Pressure, kPa = 101
Property: Relative permittivity at various frequencies (Liquid); method: Parallel plate capacitor
Temperature, K	Frequency, MHz	Relative permittivity at various frequencies	uncertainty
303.15	1	2.26	.00678

System: monoethanolamine; phases: Liquid
Fixed: Pressure, kPa = 101
Property: Relative permittivity at various frequencies (Liquid); method: Parallel plate capacitor
Temperature, K	Frequency, MHz	Relative permittivity at various frequencies	uncertainty
303.15	1	31.46	.09438

System: water; phases: Liquid
Fixed: Pressure, kPa = 101
Property: Relative permittivity at various frequencies (Liquid); method: Parallel plate capacitor
Temperature, K	Frequency, MHz	Relative permittivity at various frequencies	uncertainty
303.15	1	76.53	.22959

System: methylsulfinylmethane; phases: Liquid
Fixed: Pressure, kPa = 101
Property: Relative permittivity at various frequencies (Liquid); method: Parallel plate capacitor
Temperature, K	Frequency, MHz	Relative permittivity at various frequencies	uncertainty
303.15	1	46.05	.13815

System: ethanol; phases: Liquid
Fixed: Pressure, kPa = 101
Property: Relative permittivity at various frequencies (Liquid); method: Parallel plate capacitor
Temperature, K	Frequency, MHz	Relative permittivity at various frequencies	uncertainty
303.15	1	23.87	.07161

System: N,N-dimethylformamide + carbamaldehyde; phases: Liquid
Fixed: Temperature, K = 303.15
Fixed: Frequency, MHz = 1
Property: Relative permittivity at various frequencies (Liquid); method: Parallel plate capacitor
Mole fraction of carbamaldehyde	Relative permittivity at various frequencies	uncertainty
0	36.55	.10965
.122	40.58	.12174
.23	45	.135
.327	49.26	.14778
.414	53.6	.1608
.493	58.17	.17451
.565	63.22	.18966
.63	67.66	.20298
.69	72.58	.21774
.745	77.4	.2322
.796	82.52	.24756
.843	86.95	.26085
.886	91.84	.27552
.927	96.1	.2883
.965	101.77	.30531
1	106.14	.31842
.5	58.5	.1755

System: carbamaldehyde + monoethanolamine; phases: Liquid
Fixed: Temperature, K = 303.15
Fixed: Frequency, MHz = 1
Property: Relative permittivity at various frequencies (Liquid); method: Parallel plate capacitor
Mole fraction of carbamaldehyde	Relative permittivity at various frequencies	uncertainty
0	31.46	.09438
.144	36.91	.11073
.275	44.61	.13383
.394	52.04	.15612
.503	59.14	.17742
.603	66.34	.19902
.695	74.02	.22206
.78	81.77	.24531
.859	90.12	.27036
.932	97.77	.29331
1	106.14	.31842
.5	59.52	.17856

System: N,N-dimethylformamide + carbamaldehyde + water; phases: Liquid
Fixed: Temperature, K = 303.15
Fixed: Frequency, MHz = 1
Property: Relative permittivity at various frequencies (Liquid); method: Parallel plate capacitor
Mole fraction of water	Mole fraction of N,N-dimethylformamide	Relative permittivity at various frequencies	uncertainty
0	.5	58.5	.1755
.189	.406	62.52	.18756
.334	.333	65.48	.19644
.45	.275	68.06	.20418
.543	.229	70.21	.21063
.62	.19	72.18	.21654
.685	.158	73.76	.22128
.741	.13	74.92	.22476
.789	.106	75.8	.2274
.83	.085	76.42	.22926
.867	.067	76.89	.23067
.9	.05	77.15	.23145
.929	.036	77.21	.23163
.955	.023	76.85	.23055
.979	.011	76.91	.23073
1	0	76.53	.22959

System: N,N-dimethylformamide + carbamaldehyde + 1,4-dioxacyclohexane; phases: Liquid
Fixed: Temperature, K = 303.15
Fixed: Frequency, MHz = 1
Property: Relative permittivity at various frequencies (Liquid); method: Parallel plate capacitor
Mole fraction of 1,4-dioxacyclohexane	Mole fraction of N,N-dimethylformamide	Relative permittivity at various frequencies	uncertainty
0	.5	58.5	.1755
.046	.477	53.51	.16053
.095	.453	48.54	.14562
.146	.427	44.43	.13329
.199	.401	40.09	.12027
.255	.373	36.37	.10911
.313	.344	32.85	.09855
.374	.313	28.42	.08526
.438	.281	25.15	.07545
.506	.247	20.94	.06282
.577	.212	17.54	.05262
.653	.174	14.19	.04257
.732	.134	10.55	.03165
.816	.092	7.5	.0225
.905	.048	4.86	.01458
1	0	2.26	.00678

System: methylsulfinylmethane + N,N-dimethylformamide + carbamaldehyde; phases: Liquid
Fixed: Temperature, K = 303.15
Fixed: Frequency, MHz = 1
Property: Relative permittivity at various frequencies (Liquid); method: Parallel plate capacitor
Mole fraction of methylsulfinylmethane	Mole fraction of N,N-dimethylformamide	Relative permittivity at various frequencies	uncertainty
0	.5	58.5	.1755
.055	.473	58.2	.1746
.111	.445	57.3	.1719
.169	.416	56.24	.16872
.229	.386	55.41	.16623
.289	.356	54.41	.16323
.352	.324	53.73	.16119
.416	.292	52.76	.15828
.482	.259	51.83	.15549
.55	.225	50.94	.15282
.62	.19	50.18	.15054
.691	.155	49.42	.14826
.765	.118	48.51	.14553
.841	.08	47.68	.14304
.919	.041	47.05	.14115
1	0	46.05	.13815

System: ethanol + N,N-dimethylformamide + carbamaldehyde; phases: Liquid
Fixed: Temperature, K = 303.15
Fixed: Frequency, MHz = 1
Property: Relative permittivity at various frequencies (Liquid); method: Parallel plate capacitor
Mole fraction of ethanol	Mole fraction of N,N-dimethylformamide	Relative permittivity at various frequencies	uncertainty
0	.5	58.5	.1755
.067	.467	55.19	.16557
.134	.433	53.01	.15903
.201	.4	50.76	.15228
.268	.366	48.52	.14556
.335	.333	46.18	.13854
.401	.3	43.87	.13161
.468	.266	41.52	.12456
.535	.233	38.97	.11691
.601	.2	36.77	.11031
.668	.166	34.43	.10329
.734	.133	32.26	.09678
.801	.1	29.93	.08979
.867	.067	27.75	.08325
.934	.033	26.07	.07821
1	0	23.87	.07161

System: carbamaldehyde + monoethanolamine + water; phases: Liquid
Fixed: Temperature, K = 303.15
Fixed: Frequency, MHz = 1
Property: Relative permittivity at various frequencies (Liquid); method: Parallel plate capacitor
Mole fraction of water	Mole fraction of monoethanolamine	Relative permittivity at various frequencies	uncertainty
0	.5	59.52	.17856
.166	.417	61.5	.1845
.3	.35	63.82	.19146
.411	.295	66.01	.19803
.504	.248	68.63	.20589
.582	.209	71.18	.21354
.65	.175	73.7	.2211
.709	.146	77.66	.23298
.761	.12	81.85	.24555
.807	.097	87.07	.26121
.848	.076	90.71	.27213
.885	.058	94.6	.2838
.918	.041	95.68	.28704
.948	.026	92.38	.27714
.975	.013	85.35	.25605
1	0	76.53	.22959

System: carbamaldehyde + 1,4-dioxacyclohexane + monoethanolamine; phases: Liquid
Fixed: Temperature, K = 303.15
Fixed: Frequency, MHz = 1
Property: Relative permittivity at various frequencies (Liquid); method: Parallel plate capacitor
Mole fraction of 1,4-dioxacyclohexane	Mole fraction of monoethanolamine	Relative permittivity at various frequencies	uncertainty
0	.5	59.52	.17856
.04	.48	52.12	.15636
.082	.459	47.68	.14304
.127	.437	44.21	.13263
.175	.413	40.13	.12039
.226	.387	35.82	.10746
.28	.36	31.66	.09498
.338	.331	28.04	.08412
.4	.3	23.68	.07104
.467	.267	19.91	.05973
.538	.231	17.26	.05178
.616	.192	12.81	.03843
.7	.15	10.06	.03018
.791	.105	7.13	.02139
.891	.055	4.45	.01335
1	0	2.26	.00678

System: methylsulfinylmethane + carbamaldehyde + monoethanolamine; phases: Liquid
Fixed: Temperature, K = 303.15
Fixed: Frequency, MHz = 1
Property: Relative permittivity at various frequencies (Liquid); method: Parallel plate capacitor
Mole fraction of methylsulfinylmethane	Mole fraction of monoethanolamine	Relative permittivity at various frequencies	uncertainty
0	.5	59.52	.17856
.047	.477	58.12	.17436
.097	.452	57.48	.17244
.148	.426	56.57	.16971
.202	.399	55.73	.16719
.258	.371	54.93	.16479
.317	.342	54.01	.16203
.378	.311	53.21	.15963
.443	.279	52.36	.15708
.511	.245	51.4	.1542
.582	.209	50.53	.15159
.657	.172	49.65	.14895
.736	.132	48.74	.14622
.819	.091	47.79	.14337
.907	.047	46.8	.1404
1	0	46.05	.13815

System: ethanol + carbamaldehyde + monoethanolamine; phases: Liquid
Fixed: Temperature, K = 303.15
Fixed: Frequency, MHz = 1
Property: Relative permittivity at various frequencies (Liquid); method: Parallel plate capacitor
Mole fraction of ethanol	Mole fraction of monoethanolamine	Relative permittivity at various frequencies	uncertainty
0	.5	59.52	.17856
.058	.471	56.62	.16986
.117	.442	53.52	.16056
.177	.412	51.59	.15477
.238	.381	48.93	.14679
.3	.35	46.42	.13926
.364	.318	43.68	.13104
.429	.286	41.62	.12486
.495	.253	39.25	.11775
.563	.219	36.81	.11043
.632	.184	34.81	.10443
.702	.149	32.33	.09699
.774	.113	30.27	.09081
.848	.076	27.93	.08379
.923	.039	26.3	.0789
1	0	23.87	.07161
