Measured thermophysical data. Excess Volumes and Excess Isentropic Compressibilities of Binary Liquid Mixtures of Trichloroethylene with Esters at 303.15 K
Source: Int. J. Thermophys., 2015, 10.1007/s10765-015-1927-y
Compound 1: trichloroethene, C2HCl3
Compound 2: ethyl ethanoate, C4H8O2
Compound 3: propyl ethanoate, C5H10O2
Compound 4: butyl ethanoate, C6H12O2

System: trichloroethene; phases: Liquid
Property: Mass density, kg/m3 (Liquid); method: Vibrating tube method
Pressure, kPa	Temperature, K	Mass density, kg/m3	uncertainty
101	303.15	1450.9	

System: trichloroethene; phases: Liquid
Fixed: Frequency, MHz = 1
Property: Speed of sound, m/s (Liquid); method: Linear variable-path acoustic interferometer
Pressure, kPa	Temperature, K	Speed of sound, m/s	uncertainty
101	303.15	1016	

System: trichloroethene; phases: Liquid
Property: Viscosity, Pa*s (Liquid); method: Capillary tube (Ostwald; Ubbelohde) method
Pressure, kPa	Temperature, K	Viscosity, Pa*s	uncertainty
101	303.15	.000589	

System: ethyl ethanoate; phases: Liquid
Property: Mass density, kg/m3 (Liquid); method: Vibrating tube method
Pressure, kPa	Temperature, K	Mass density, kg/m3	uncertainty
101	303.15	888.75	

System: ethyl ethanoate; phases: Liquid
Fixed: Frequency, MHz = 1
Property: Speed of sound, m/s (Liquid); method: Linear variable-path acoustic interferometer
Pressure, kPa	Temperature, K	Speed of sound, m/s	uncertainty
101	303.15	1126	

System: ethyl ethanoate; phases: Liquid
Property: Viscosity, Pa*s (Liquid); method: Capillary tube (Ostwald; Ubbelohde) method
Pressure, kPa	Temperature, K	Viscosity, Pa*s	uncertainty
101	303.15	.000424	

System: propyl ethanoate; phases: Liquid
Property: Mass density, kg/m3 (Liquid); method: Vibrating tube method
Pressure, kPa	Temperature, K	Mass density, kg/m3	uncertainty
101	303.15	876.55	

System: propyl ethanoate; phases: Liquid
Fixed: Frequency, MHz = 1
Property: Speed of sound, m/s (Liquid); method: Linear variable-path acoustic interferometer
Pressure, kPa	Temperature, K	Speed of sound, m/s	uncertainty
101	303.15	1148	

System: propyl ethanoate; phases: Liquid
Property: Viscosity, Pa*s (Liquid); method: Capillary tube (Ostwald; Ubbelohde) method
Pressure, kPa	Temperature, K	Viscosity, Pa*s	uncertainty
101	303.15	.000547	

System: butyl ethanoate; phases: Liquid
Property: Mass density, kg/m3 (Liquid); method: Vibrating tube method
Pressure, kPa	Temperature, K	Mass density, kg/m3	uncertainty
101	303.15	871.07	

System: butyl ethanoate; phases: Liquid
Fixed: Frequency, MHz = 1
Property: Speed of sound, m/s (Liquid); method: Linear variable-path acoustic interferometer
Pressure, kPa	Temperature, K	Speed of sound, m/s	uncertainty
101	303.15	1170	

System: butyl ethanoate; phases: Liquid
Property: Viscosity, Pa*s (Liquid); method: Capillary tube (Ostwald; Ubbelohde) method
Pressure, kPa	Temperature, K	Viscosity, Pa*s	uncertainty
101	303.15	.000638	

System: trichloroethene + ethyl ethanoate; phases: Liquid
Fixed: Pressure, kPa = 101
Fixed: Temperature, K = 303.15
Property: Mass density, kg/m3 (Liquid); method: Vibrating tube method
Mole fraction of trichloroethene	Mass density, kg/m3	uncertainty
0	888.75	
.1325	957.65	
.2099	998.68	
.3674	1083.99	
.4158	1110.76	
.5484	1185.16	
.6854	1263.95	
.8354	1352.1	
.8995	1390.34	
1	1450.9	

System: trichloroethene + ethyl ethanoate; phases: Liquid
Fixed: Pressure, kPa = 101
Fixed: Temperature, K = 303.15
Fixed: Frequency, MHz = 1
Property: Speed of sound, m/s (Liquid); method: Linear variable-path acoustic interferometer
Mole fraction of trichloroethene	Speed of sound, m/s	uncertainty
0	1126	
.1325	1105	
.2099	1094	
.3674	1073	
.4158	1067	
.5484	1051	
.6854	1037	
.8354	1025	
.8995	1021	
1	1016	

System: trichloroethene + ethyl ethanoate; phases: Liquid
Fixed: Pressure, kPa = 101
Fixed: Temperature, K = 303.15
Property: Viscosity, Pa*s (Liquid); method: Capillary tube (Ostwald; Ubbelohde) method
Mole fraction of trichloroethene	Viscosity, Pa*s	uncertainty
0	.000424	
.1325	.000451	
.2099	.00047	
.3674	.000501	
.4158	.000509	
.5484	.000532	
.6854	.000552	
.8354	.00057	
.8995	.000577	
1	.000589	

System: trichloroethene + propyl ethanoate; phases: Liquid
Fixed: Pressure, kPa = 101
Fixed: Temperature, K = 303.15
Property: Mass density, kg/m3 (Liquid); method: Vibrating tube method
Mole fraction of trichloroethene	Mass density, kg/m3	uncertainty
0	876.55	
.1419	942.22	
.2337	987.22	
.364	1054.63	
.4555	1104.47	
.5827	1177.08	
.6735	1231.75	
.7713	1293.35	
.8922	1374.05	
1	1450.9	

System: trichloroethene + propyl ethanoate; phases: Liquid
Fixed: Pressure, kPa = 101
Fixed: Temperature, K = 303.15
Fixed: Frequency, MHz = 1
Property: Speed of sound, m/s (Liquid); method: Linear variable-path acoustic interferometer
Mole fraction of trichloroethene	Speed of sound, m/s	uncertainty
0	1148	
.1419	1126	
.2337	1112	
.364	1094	
.4555	1081	
.5827	1063	
.6735	1050	
.7713	1038	
.8922	1025	
1	1016	

System: trichloroethene + propyl ethanoate; phases: Liquid
Fixed: Pressure, kPa = 101
Fixed: Temperature, K = 303.15
Property: Viscosity, Pa*s (Liquid); method: Capillary tube (Ostwald; Ubbelohde) method
Mole fraction of trichloroethene	Viscosity, Pa*s	uncertainty
0	.000547	
.1419	.000567	
.2337	.000578	
.364	.000592	
.4555	.000601	
.5827	.00061	
.6735	.000614	
.7713	.000612	
.8922	.000604	
1	.000589	

System: trichloroethene + butyl ethanoate; phases: Liquid
Fixed: Pressure, kPa = 101
Fixed: Temperature, K = 303.15
Property: Mass density, kg/m3 (Liquid); method: Vibrating tube method
Mole fraction of trichloroethene	Mass density, kg/m3	uncertainty
0	871.07	
.1739	944.38	
.25	979.14	
.3658	1035.81	
.4722	1092.05	
.5724	1149.11	
.6942	1224.71	
.7761	1279.91	
.9126	1380.34	
1	1450.9	

System: trichloroethene + butyl ethanoate; phases: Liquid
Fixed: Pressure, kPa = 101
Fixed: Temperature, K = 303.15
Fixed: Frequency, MHz = 1
Property: Speed of sound, m/s (Liquid); method: Linear variable-path acoustic interferometer
Mole fraction of trichloroethene	Speed of sound, m/s	uncertainty
0	1170	
.1739	1145	
.25	1135	
.3658	1115	
.4722	1097	
.5724	1080	
.6942	1060	
.7761	1047	
.9126	1027	
1	1016	

System: trichloroethene + butyl ethanoate; phases: Liquid
Fixed: Pressure, kPa = 101
Fixed: Temperature, K = 303.15
Property: Viscosity, Pa*s (Liquid); method: Capillary tube (Ostwald; Ubbelohde) method
Mole fraction of trichloroethene	Viscosity, Pa*s	uncertainty
0	.000638	
.1739	.00066	
.25	.000665	
.3658	.00067	
.4722	.000666	
.5724	.000666	
.6942	.000654	
.7761	.000644	
.9126	.00062	
1	.000589	
