Measured thermophysical data. Acoustic and Thermophysical Properties of Binary Liquid Mixtures of Primary Butanols with Hexane and Cyclohexane at 293.15 K
Source: Int. J. Thermophys., 2010, 10.1007/s10765-009-0665-4
Compound 1: 1-butanol, C4H10O
Compound 2: hexane, C6H14
Compound 3: cyclohexane, C6H12
Compound 4: 2-methyl-1-propanol, C4H10O

System: 1-butanol; phases: Liquid
Fixed: Pressure, kPa = 101.325
Property: Speed of sound, m/s (Liquid); method: Sing-around technique in a fixed-path interferometer
Temperature, K	Speed of sound, m/s	uncertainty
293.15	1256.3	.5

System: hexane; phases: Liquid
Fixed: Pressure, kPa = 101.325
Property: Speed of sound, m/s (Liquid); method: Sing-around technique in a fixed-path interferometer
Temperature, K	Speed of sound, m/s	uncertainty
293.15	1098.9	.5

System: cyclohexane; phases: Liquid
Fixed: Pressure, kPa = 101.325
Property: Speed of sound, m/s (Liquid); method: Sing-around technique in a fixed-path interferometer
Temperature, K	Speed of sound, m/s	uncertainty
293.15	1279	.5

System: 2-methyl-1-propanol; phases: Liquid
Fixed: Pressure, kPa = 101.325
Property: Speed of sound, m/s (Liquid); method: Sing-around technique in a fixed-path interferometer
Temperature, K	Speed of sound, m/s	uncertainty
293.15	1204.1	.5

System: 1-butanol + hexane; phases: Liquid
Fixed: Temperature, K = 293.15
Fixed: Pressure, kPa = 101
Property: Mass density, kg/m3 (Liquid); method: Vibrating tube method
Mole fraction of 1-butanol	Mass density, kg/m3	uncertainty
.00305	659.9	.05
.04764	664.4	.05
.10262	670.3	.05
.12246	672.4	.05
.15089	675.6	.05
.2261	684.4	.05
.29788	693.4	.05
.49651	720.9	.05
.61276	738.8	.05
.68166	750.1	.05
.76577	764.5	.05
.89374	788.1	.05

System: 1-butanol + hexane; phases: Liquid
Fixed: Temperature, K = 293.15
Fixed: Pressure, kPa = 101
Property: Speed of sound, m/s (Liquid); method: Sing-around technique in a fixed-path interferometer
Mole fraction of 1-butanol	Speed of sound, m/s	uncertainty
.00305	1099	.5
.04764	1099.2	.5
.10262	1099.8	.5
.12246	1100.5	.5
.15089	1101.6	.5
.2261	1105.9	.5
.29788	1112.1	.5
.49651	1140	.5
.61276	1160.2	.5
.68166	1174	.5
.76577	1192.1	.5
.89374	1224.5	.5

System: 1-butanol + cyclohexane; phases: Liquid
Fixed: Temperature, K = 293.15
Fixed: Pressure, kPa = 101
Property: Mass density, kg/m3 (Liquid); method: Vibrating tube method
Mole fraction of 1-butanol	Mass density, kg/m3	uncertainty
.00115	778.6	.05
.00245	778.5	.05
.0124	778.5	.05
.0262	778.7	.05
.04084	778.8	.05
.07249	779.3	.05
.13953	780.4	.05
.18966	781.4	.05
.30171	784	.05
.51749	790.4	.05
.61622	793.7	.05
.79829	800.8	.05

System: 1-butanol + cyclohexane; phases: Liquid
Fixed: Temperature, K = 293.15
Fixed: Pressure, kPa = 101
Property: Speed of sound, m/s (Liquid); method: Sing-around technique in a fixed-path interferometer
Mole fraction of 1-butanol	Speed of sound, m/s	uncertainty
.00115	1278.7	.5
.00245	1277.7	.5
.0124	1274.6	.5
.0262	1271.5	.5
.04084	1269.3	.5
.07249	1265.3	.5
.13953	1258.6	.5
.18966	1254.6	.5
.30171	1248.8	.5
.51749	1244.4	.5
.61622	1244.8	.5
.79829	1248.2	.5
