Measured thermophysical data. Experimental and Predicted Viscosities of Binary Mixtures Containing Chlorinated and Oxygenated Compounds
Source: Int. J. Thermophys., 2013, 10.1007/s10765-012-1371-1
Compound 1: butyl chloride, C4H9Cl, purity 99%
Compound 2: 1-methylpropyl chloride, C4H9Cl, purity 99%
Compound 3: 1-chloro-2-methylpropane, C4H9Cl, purity 99%
Compound 4: butyl ethyl ether, C6H14O, purity 99%
Compound 5: methyl tert-butyl ether, C5H12O, purity 99%

System: butyl chloride; phases: Liquid
Property: Viscosity, Pa*s (Liquid); method: Capillary tube (Ostwald; Ubbelohde) method
Temperature, K	Pressure, kPa	Viscosity, Pa*s	uncertainty
283.15	101	.0004993	
288.15	101	.0004701	
293.15	101	.0004433	
298.15	101	.0004214	
303.15	101	.000405	
308.15	101	.0003885	
313.15	101	.0003642	

System: 1-methylpropyl chloride; phases: Liquid
Property: Viscosity, Pa*s (Liquid); method: Capillary tube (Ostwald; Ubbelohde) method
Temperature, K	Pressure, kPa	Viscosity, Pa*s	uncertainty
283.15	101	.0004631	
288.15	101	.0004365	
293.15	101	.0004167	
298.15	101	.0003993	
303.15	101	.00038	
308.15	101	.0003615	
313.15	101	.0003443	

System: 1-chloro-2-methylpropane; phases: Liquid
Property: Viscosity, Pa*s (Liquid); method: Capillary tube (Ostwald; Ubbelohde) method
Temperature, K	Pressure, kPa	Viscosity, Pa*s	uncertainty
283.15	101	.0005155	
288.15	101	.0004833	
293.15	101	.000454	
298.15	101	.0004296	
303.15	101	.0004112	
308.15	101	.0003921	
313.15	101	.0003726	

System: butyl ethyl ether; phases: Liquid
Property: Viscosity, Pa*s (Liquid); method: Capillary tube (Ostwald; Ubbelohde) method
Temperature, K	Pressure, kPa	Viscosity, Pa*s	uncertainty
283.15	101	.0004796	
288.15	101	.0004509	
293.15	101	.0004242	
298.15	101	.000399	
303.15	101	.0003756	
308.15	101	.000356	
313.15	101	.0003416	

System: methyl tert-butyl ether; phases: Liquid
Property: Viscosity, Pa*s (Liquid); method: Capillary tube (Ostwald; Ubbelohde) method
Temperature, K	Pressure, kPa	Viscosity, Pa*s	uncertainty
283.15	101	.0003897	
288.15	101	.000364	
293.15	101	.0003482	
298.15	101	.0003327	
303.15	101	.0003152	
308.15	101	.0002994	
313.15	101	.0002846	

System: butyl chloride + butyl ethyl ether; phases: Liquid
Fixed: Pressure, kPa = 101
Property: Viscosity, Pa*s (Liquid); method: Capillary tube (Ostwald; Ubbelohde) method
Temperature, K	Mole fraction of butyl chloride	Viscosity, Pa*s	uncertainty
283.15	0	.0004796	
283.15	.0515	.0004815	
283.15	.1016	.0004832	
283.15	.2008	.0004862	
283.15	.3003	.000489	
283.15	.4002	.0004914	
283.15	.5014	.0004934	
283.15	.6023	.0004951	
283.15	.7003	.0004965	
283.15	.8004	.0004977	
283.15	.9006	.0004986	
283.15	.9502	.0004989	
283.15	1	.0004993	
288.15	0	.0004509	
288.15	.0515	.0004523	
288.15	.1016	.0004536	
288.15	.2008	.0004561	
288.15	.3003	.0004583	
288.15	.4002	.0004604	
288.15	.5014	.0004623	
288.15	.6023	.0004641	
288.15	.7003	.0004657	
288.15	.8004	.0004672	
288.15	.9006	.0004687	
288.15	.9502	.0004694	
288.15	1	.0004701	
293.15	0	.0004242	
293.15	.0515	.0004254	
293.15	.1016	.0004265	
293.15	.2008	.0004286	
293.15	.3003	.0004307	
293.15	.4002	.0004326	
293.15	.5014	.0004345	
293.15	.6023	.0004364	
293.15	.7003	.0004381	
293.15	.8004	.0004398	
293.15	.9006	.0004416	
293.15	.9502	.0004424	
293.15	1	.0004433	
298.15	0	.000399	
298.15	.0515	.0004002	
298.15	.1016	.0004014	
298.15	.2008	.0004036	
298.15	.3003	.0004058	
298.15	.4002	.000408	
298.15	.5014	.0004102	
298.15	.6023	.0004123	
298.15	.7003	.0004145	
298.15	.8004	.0004167	
298.15	.9006	.0004191	
298.15	.9502	.0004201	
298.15	1	.0004214	
303.15	0	.0003756	
303.15	.0515	.0003771	
303.15	.1016	.0003785	
303.15	.2008	.0003812	
303.15	.3003	.0003839	
303.15	.4002	.0003868	
303.15	.5014	.0003895	
303.15	.6023	.0003925	
303.15	.7003	.0003954	
303.15	.8004	.0003985	
303.15	.9006	.0004016	
303.15	.9502	.0004033	
303.15	1	.000405	
308.15	0	.000356	
308.15	.0515	.0003576	
308.15	.1016	.000359	
308.15	.2008	.0003618	
308.15	.3003	.000365	
308.15	.4002	.000368	
308.15	.5014	.0003712	
308.15	.6023	.0003744	
308.15	.7003	.0003777	
308.15	.8004	.000381	
308.15	.9006	.0003846	
308.15	.9502	.0003866	
308.15	1	.0003885	
313.15	0	.0003416	
313.15	.0515	.0003426	
313.15	.1016	.0003435	
313.15	.2008	.0003452	
313.15	.3003	.0003473	
313.15	.4002	.0003493	
313.15	.5014	.0003514	
313.15	.6023	.0003537	
313.15	.7003	.0003559	
313.15	.8004	.0003585	
313.15	.9006	.0003612	
313.15	.9502	.0003627	
313.15	1	.0003642	

System: 1-methylpropyl chloride + butyl ethyl ether; phases: Liquid
Fixed: Pressure, kPa = 101
Property: Viscosity, Pa*s (Liquid); method: Capillary tube (Ostwald; Ubbelohde) method
Temperature, K	Mole fraction of 1-methylpropyl chloride	Viscosity, Pa*s	uncertainty
283.15	0	.0004796	
283.15	.0525	.0004785	
283.15	.0974	.0004776	
283.15	.2001	.000475	
283.15	.3027	.0004724	
283.15	.4	.0004697	
283.15	.5248	.0004665	
283.15	.6016	.0004647	
283.15	.7006	.000463	
283.15	.7993	.000462	
283.15	.8997	.0004619	
283.15	.9502	.0004623	
283.15	1	.0004631	
288.15	0	.0004509	
288.15	.0525	.0004498	
288.15	.0974	.0004489	
288.15	.2001	.0004462	
288.15	.3027	.0004436	
288.15	.4	.0004409	
288.15	.5248	.0004384	
288.15	.6016	.0004368	
288.15	.7006	.0004353	
288.15	.7993	.0004346	
288.15	.8997	.0004349	
288.15	.9502	.0004356	
288.15	1	.0004365	
293.15	0	.0004242	
293.15	.0525	.0004233	
293.15	.0974	.0004223	
293.15	.2001	.0004203	
293.15	.3027	.0004183	
293.15	.4	.0004165	
293.15	.5248	.0004148	
293.15	.6016	.0004139	
293.15	.7006	.000413	
293.15	.7993	.0004132	
293.15	.8997	.0004143	
293.15	.9502	.0004152	
293.15	1	.0004167	
298.15	0	.000399	
298.15	.0525	.0003983	
298.15	.0974	.0003974	
298.15	.2001	.0003963	
298.15	.3027	.000395	
298.15	.4	.000394	
298.15	.5248	.0003933	
298.15	.6016	.000393	
298.15	.7006	.000393	
298.15	.7993	.0003939	
298.15	.8997	.0003959	
298.15	.9502	.0003972	
298.15	1	.0003993	
303.15	0	.0003756	
303.15	.0525	.0003749	
303.15	.0974	.000374	
303.15	.2001	.0003732	
303.15	.3027	.0003724	
303.15	.4	.0003718	
303.15	.5248	.0003716	
303.15	.6016	.0003716	
303.15	.7006	.0003721	
303.15	.7993	.0003735	
303.15	.8997	.0003759	
303.15	.9502	.0003775	
303.15	1	.00038	
308.15	0	.000356	
308.15	.0525	.0003552	
308.15	.0974	.0003541	
308.15	.2001	.0003533	
308.15	.3027	.0003529	
308.15	.4	.0003523	
308.15	.5248	.0003523	
308.15	.6016	.0003523	
308.15	.7006	.000353	
308.15	.7993	.0003545	
308.15	.8997	.0003569	
308.15	.9502	.0003587	
308.15	1	.0003615	
313.15	0	.0003416	
313.15	.0525	.0003404	
313.15	.0974	.0003392	
313.15	.2001	.0003379	
313.15	.3027	.0003372	
313.15	.4	.0003364	
313.15	.5248	.0003361	
313.15	.6016	.000336	
313.15	.7006	.0003363	
313.15	.7993	.0003376	
313.15	.8997	.0003396	
313.15	.9502	.0003414	
313.15	1	.0003443	

System: 1-chloro-2-methylpropane + butyl ethyl ether; phases: Liquid
Fixed: Pressure, kPa = 101
Property: Viscosity, Pa*s (Liquid); method: Capillary tube (Ostwald; Ubbelohde) method
Temperature, K	Mole fraction of 1-chloro-2-methylpropane	Viscosity, Pa*s	uncertainty
283.15	0	.0004796	
283.15	.0493	.0004797	
283.15	.1004	.0004799	
283.15	.2001	.0004812	
283.15	.3012	.0004836	
283.15	.4021	.0004866	
283.15	.5025	.0004903	
283.15	.6007	.0004946	
283.15	.6993	.0004994	
283.15	.7994	.0005044	
283.15	.8993	.0005099	
283.15	.9491	.0005126	
283.15	1	.0005155	
288.15	0	.0004509	
288.15	.0493	.0004512	
288.15	.1004	.0004514	
288.15	.2001	.0004526	
288.15	.3012	.0004548	
288.15	.4021	.0004574	
288.15	.5025	.0004609	
288.15	.6007	.0004649	
288.15	.6993	.0004692	
288.15	.7994	.0004736	
288.15	.8993	.0004783	
288.15	.9491	.0004808	
288.15	1	.0004833	
293.15	0	.0004242	
293.15	.0493	.0004246	
293.15	.1004	.0004248	
293.15	.2001	.0004259	
293.15	.3012	.0004279	
293.15	.4021	.0004305	
293.15	.5025	.0004337	
293.15	.6007	.0004374	
293.15	.6993	.0004412	
293.15	.7994	.0004453	
293.15	.8993	.0004496	
293.15	.9491	.0004518	
293.15	1	.000454	
298.15	0	.000399	
298.15	.0493	.0003993	
298.15	.1004	.0003998	
298.15	.2001	.0004012	
298.15	.3012	.0004035	
298.15	.4021	.0004063	
298.15	.5025	.0004097	
298.15	.6007	.0004133	
298.15	.6993	.0004171	
298.15	.7994	.0004211	
298.15	.8993	.0004253	
298.15	.9491	.0004274	
298.15	1	.0004296	
303.15	0	.0003756	
303.15	.0493	.0003762	
303.15	.1004	.0003771	
303.15	.2001	.0003793	
303.15	.3012	.0003822	
303.15	.4021	.0003855	
303.15	.5025	.0003893	
303.15	.6007	.0003933	
303.15	.6993	.0003975	
303.15	.7994	.0004021	
303.15	.8993	.0004065	
303.15	.9491	.0004089	
303.15	1	.0004112	
308.15	0	.000356	
308.15	.0493	.0003569	
308.15	.1004	.0003578	
308.15	.2001	.0003603	
308.15	.3012	.0003634	
308.15	.4021	.0003667	
308.15	.5025	.0003704	
308.15	.6007	.0003745	
308.15	.6993	.0003786	
308.15	.7994	.0003832	
308.15	.8993	.0003875	
308.15	.9491	.0003898	
308.15	1	.0003921	
313.15	0	.0003416	
313.15	.0493	.0003423	
313.15	.1004	.0003432	
313.15	.2001	.0003455	
313.15	.3012	.0003481	
313.15	.4021	.0003511	
313.15	.5025	.0003543	
313.15	.6007	.0003576	
313.15	.6993	.0003612	
313.15	.7994	.0003649	
313.15	.8993	.0003687	
313.15	.9491	.0003706	
313.15	1	.0003726	

System: butyl chloride + methyl tert-butyl ether; phases: Liquid
Fixed: Pressure, kPa = 101
Property: Viscosity, Pa*s (Liquid); method: Capillary tube (Ostwald; Ubbelohde) method
Temperature, K	Mole fraction of butyl chloride	Viscosity, Pa*s	uncertainty
283.15	0	.0003897	
283.15	.0499	.000395	
283.15	.1002	.0004003	
283.15	.2011	.000411	
283.15	.302	.0004224	
283.15	.4007	.0004339	
283.15	.5026	.0004461	
283.15	.6029	.0004581	
283.15	.693	.0004686	
283.15	.8064	.000481	
283.15	.904	.0004912	
283.15	.9509	.0004951	
283.15	1	.0004993	
288.15	0	.000364	
288.15	.0499	.000369	
288.15	.1002	.0003741	
288.15	.2011	.0003844	
288.15	.302	.0003952	
288.15	.4007	.0004063	
288.15	.5026	.000418	
288.15	.6029	.0004295	
288.15	.693	.0004396	
288.15	.8064	.0004518	
288.15	.904	.0004616	
288.15	.9509	.0004658	
288.15	1	.0004701	
293.15	0	.0003482	
293.15	.0499	.0003525	
293.15	.1002	.0003571	
293.15	.2011	.0003663	
293.15	.302	.0003758	
293.15	.4007	.0003855	
293.15	.5026	.0003959	
293.15	.6029	.0004063	
293.15	.693	.0004155	
293.15	.8064	.0004266	
293.15	.904	.0004355	
293.15	.9509	.0004392	
293.15	1	.0004433	
298.15	0	.0003327	
298.15	.0499	.0003367	
298.15	.1002	.0003409	
298.15	.2011	.0003494	
298.15	.302	.0003582	
298.15	.4007	.000367	
298.15	.5026	.0003765	
298.15	.6029	.000386	
298.15	.693	.0003945	
298.15	.8064	.0004048	
298.15	.904	.0004134	
298.15	.9509	.0004173	
298.15	1	.0004214	
303.15	0	.0003152	
303.15	.0499	.0003193	
303.15	.1002	.0003234	
303.15	.2011	.000332	
303.15	.302	.0003408	
303.15	.4007	.0003498	
303.15	.5026	.0003592	
303.15	.6029	.0003686	
303.15	.693	.000377	
303.15	.8064	.0003876	
303.15	.904	.0003966	
303.15	.9509	.0004007	
303.15	1	.000405	
308.15	0	.0002994	
308.15	.0499	.0003033	
308.15	.1002	.0003074	
308.15	.2011	.0003159	
308.15	.302	.0003247	
308.15	.4007	.0003335	
308.15	.5026	.0003428	
308.15	.6029	.0003519	
308.15	.693	.0003605	
308.15	.8064	.000371	
308.15	.904	.0003799	
308.15	.9509	.0003841	
308.15	1	.0003885	
313.15	0	.0002846	
313.15	.0499	.000288	
313.15	.1002	.0002915	
313.15	.2011	.0002991	
313.15	.302	.0003068	
313.15	.4007	.0003146	
313.15	.5026	.0003229	
313.15	.6029	.0003312	
313.15	.693	.0003389	
313.15	.8064	.0003482	
313.15	.904	.0003563	
313.15	.9509	.0003601	
313.15	1	.0003642	

System: 1-methylpropyl chloride + methyl tert-butyl ether; phases: Liquid
Fixed: Pressure, kPa = 101
Property: Viscosity, Pa*s (Liquid); method: Capillary tube (Ostwald; Ubbelohde) method
Temperature, K	Mole fraction of 1-methylpropyl chloride	Viscosity, Pa*s	uncertainty
283.15	0	.0003897	
283.15	.0434	.0003916	
283.15	.0928	.0003949	
283.15	.1824	.0004008	
283.15	.2774	.0004072	
283.15	.3786	.0004141	
283.15	.4751	.0004208	
283.15	.584	.0004287	
283.15	.6819	.000436	
283.15	.8032	.0004456	
283.15	.9015	.0004536	
283.15	.9512	.000458	
283.15	1	.0004631	
288.15	0	.000364	
288.15	.0434	.0003664	
288.15	.0928	.0003694	
288.15	.1824	.0003752	
288.15	.2774	.0003816	
288.15	.3786	.0003883	
288.15	.4751	.0003951	
288.15	.584	.0004029	
288.15	.6819	.0004101	
288.15	.8032	.0004195	
288.15	.9015	.0004274	
288.15	.9512	.0004318	
288.15	1	.0004365	
293.15	0	.0003482	
293.15	.0434	.0003507	
293.15	.0928	.0003536	
293.15	.1824	.0003591	
293.15	.2774	.000365	
293.15	.3786	.0003715	
293.15	.4751	.0003779	
293.15	.584	.0003853	
293.15	.6819	.0003921	
293.15	.8032	.0004009	
293.15	.9015	.0004084	
293.15	.9512	.0004125	
293.15	1	.0004167	
298.15	0	.0003327	
298.15	.0434	.0003353	
298.15	.0928	.0003383	
298.15	.1824	.0003436	
298.15	.2774	.0003495	
298.15	.3786	.0003558	
298.15	.4751	.0003619	
298.15	.584	.0003691	
298.15	.6819	.0003757	
298.15	.8032	.0003843	
298.15	.9015	.0003915	
298.15	.9512	.0003954	
298.15	1	.0003993	
303.15	0	.0003152	
303.15	.0434	.0003177	
303.15	.0928	.0003207	
303.15	.1824	.0003261	
303.15	.2774	.0003319	
303.15	.3786	.000338	
303.15	.4751	.0003441	
303.15	.584	.000351	
303.15	.6819	.0003575	
303.15	.8032	.0003657	
303.15	.9015	.0003727	
303.15	.9512	.0003764	
303.15	1	.00038	
308.15	0	.0002994	
308.15	.0434	.0003019	
308.15	.0928	.0003048	
308.15	.1824	.0003099	
308.15	.2774	.0003155	
308.15	.3786	.0003215	
308.15	.4751	.0003273	
308.15	.584	.000334	
308.15	.6819	.0003401	
308.15	.8032	.0003481	
308.15	.9015	.0003547	
308.15	.9512	.0003581	
308.15	1	.0003615	
313.15	0	.0002846	
313.15	.0434	.000287	
313.15	.0928	.0002897	
313.15	.1824	.0002948	
313.15	.2774	.0003002	
313.15	.3786	.000306	
313.15	.4751	.0003117	
313.15	.584	.0003182	
313.15	.6819	.0003241	
313.15	.8032	.0003317	
313.15	.9015	.0003379	
313.15	.9512	.0003411	
313.15	1	.0003443	

System: 1-chloro-2-methylpropane + methyl tert-butyl ether; phases: Liquid
Fixed: Pressure, kPa = 101
Property: Viscosity, Pa*s (Liquid); method: Capillary tube (Ostwald; Ubbelohde) method
Temperature, K	Mole fraction of 1-chloro-2-methylpropane	Viscosity, Pa*s	uncertainty
283.15	0	.0003897	
283.15	.0492	.0003948	
283.15	.0996	.0004002	
283.15	.1979	.0004107	
283.15	.3023	.0004224	
283.15	.4027	.0004338	
283.15	.504	.0004458	
283.15	.5971	.0004574	
283.15	.7036	.0004714	
283.15	.8003	.0004848	
283.15	.9031	.0005	
283.15	.9522	.0005078	
283.15	1	.0005155	
288.15	0	.000364	
288.15	.0492	.000369	
288.15	.0996	.0003742	
288.15	.1979	.0003844	
288.15	.3023	.0003957	
288.15	.4027	.0004065	
288.15	.504	.0004178	
288.15	.5971	.0004287	
288.15	.7036	.000442	
288.15	.8003	.0004547	
288.15	.9031	.0004689	
288.15	.9522	.0004763	
288.15	1	.0004833	
293.15	0	.0003482	
293.15	.0492	.0003527	
293.15	.0996	.0003573	
293.15	.1979	.0003664	
293.15	.3023	.0003764	
293.15	.4027	.0003861	
293.15	.504	.000396	
293.15	.5971	.0004057	
293.15	.7036	.0004173	
293.15	.8003	.0004286	
293.15	.9031	.0004413	
293.15	.9522	.0004478	
293.15	1	.000454	
298.15	0	.0003327	
298.15	.0492	.0003369	
298.15	.0996	.0003412	
298.15	.1979	.0003495	
298.15	.3023	.0003587	
298.15	.4027	.0003676	
298.15	.504	.0003768	
298.15	.5971	.0003856	
298.15	.7036	.0003962	
298.15	.8003	.0004063	
298.15	.9031	.0004179	
298.15	.9522	.0004238	
298.15	1	.0004296	
303.15	0	.0003152	
303.15	.0492	.0003194	
303.15	.0996	.0003237	
303.15	.1979	.0003322	
303.15	.3023	.0003412	
303.15	.4027	.0003502	
303.15	.504	.0003594	
303.15	.5971	.0003681	
303.15	.7036	.0003786	
303.15	.8003	.0003886	
303.15	.9031	.0003998	
303.15	.9522	.0004054	
303.15	1	.0004112	
308.15	0	.0002994	
308.15	.0492	.0003035	
308.15	.0996	.0003076	
308.15	.1979	.000316	
308.15	.3023	.0003248	
308.15	.4027	.0003335	
308.15	.504	.0003424	
308.15	.5971	.000351	
308.15	.7036	.0003611	
308.15	.8003	.0003707	
308.15	.9031	.0003813	
308.15	.9522	.0003868	
308.15	1	.0003921	
313.15	0	.0002846	
313.15	.0492	.0002885	
313.15	.0996	.0002926	
313.15	.1979	.0003005	
313.15	.3023	.0003091	
313.15	.4027	.0003174	
313.15	.504	.0003261	
313.15	.5971	.0003341	
313.15	.7036	.0003437	
313.15	.8003	.0003527	
313.15	.9031	.0003626	
313.15	.9522	.0003676	
313.15	1	.0003726	
