Measured thermophysical data. Measurement of Binary Diffusion Coefficients for Neon Argon Gas Mixtures Using a Loschmidt Cell Combined with Holographic Interferometry
Source: Int. J. Thermophys., 2013, 10.1007/s10765-012-1352-4
Compound 1: neon, Ne
Compound 2: argon, Ar

System: neon + argon; phases: Gas
Property: Binary diffusion coefficient, m2/s (Gas); method: Loschmidt diffusion cell combined with holoholographic interferometry
Temperature, K	Pressure, kPa	Mole fraction of argon	Binary diffusion coefficient, m2/s	uncertainty
293.15	100	.1	0.0000000003139	4.3946E-12
293.15	100	.12	0.0000000003137	4.3918E-12
293.15	100	.14	0.0000000003125	.000000000004375
293.15	100	.16	0.0000000003125	.000000000004375
293.15	100	.18	0.0000000003115	.000000000004361
293.15	100	.2	0.000000000311	.000000000004354
293.15	100	.22	0.0000000003106	4.3484E-12
293.15	100	.24	0.0000000003103	4.3442E-12
293.15	100	.26	0.0000000003101	4.3414E-12
293.15	100	.28	0.0000000003096	4.3344E-12
293.15	100	.3	0.0000000003094	4.3316E-12
293.15	100	.32	0.0000000003084	4.3176E-12
293.15	100	.34	0.0000000003082	4.3148E-12
293.15	100	.36	0.0000000003074	4.3036E-12
293.15	100	.38	0.0000000003077	4.3078E-12
293.15	100	.4	0.0000000003074	4.3036E-12
293.15	100	.6	0.0000000003098	4.3372E-12
293.15	100	.62	0.0000000003094	4.3316E-12
293.15	100	.64	0.0000000003094	4.3316E-12
293.15	100	.66	0.0000000003094	4.3316E-12
293.15	100	.68	0.0000000003094	4.3316E-12
293.15	100	.7	0.0000000003094	4.3316E-12
293.15	100	.72	0.0000000003096	4.3344E-12
293.15	100	.74	0.0000000003098	4.3372E-12
293.15	100	.76	0.0000000003098	4.3372E-12
293.15	100	.78	0.0000000003101	4.3414E-12
293.15	100	.8	0.0000000003103	4.3442E-12
293.15	100	.82	0.0000000003103	4.3442E-12
293.15	100	.84	0.0000000003106	4.3484E-12
293.15	100	.86	0.0000000003108	4.3512E-12
293.15	100	.88	0.0000000003106	4.3484E-12
293.15	100	.9	0.0000000003113	4.3582E-12
313.15	100	.1	0.0000000003562	4.9868E-12
313.15	100	.12	0.0000000003544	4.9616E-12
313.15	100	.14	0.0000000003531	4.9434E-12
313.15	100	.16	0.0000000003521	4.9294E-12
313.15	100	.18	0.0000000003516	4.9224E-12
313.15	100	.2	0.0000000003513	4.9182E-12
313.15	100	.22	0.0000000003506	4.9084E-12
313.15	100	.24	0.0000000003495	.000000000004893
313.15	100	.26	0.000000000349	.000000000004886
313.15	100	.28	0.0000000003482	4.8748E-12
313.15	100	.3	0.0000000003475	.000000000004865
313.15	100	.32	0.0000000003472	4.8608E-12
313.15	100	.34	0.0000000003464	4.8496E-12
313.15	100	.36	0.0000000003457	4.8398E-12
313.15	100	.38	0.0000000003446	4.8244E-12
313.15	100	.4	0.0000000003441	4.8174E-12
313.15	100	.6	0.0000000003524	4.9336E-12
313.15	100	.62	0.0000000003513	4.9182E-12
313.15	100	.64	0.0000000003506	4.9084E-12
313.15	100	.66	0.00000000035	.0000000000049
313.15	100	.68	0.0000000003498	4.8972E-12
313.15	100	.7	0.0000000003498	4.8972E-12
313.15	100	.72	0.0000000003498	4.8972E-12
313.15	100	.74	0.0000000003495	.000000000004893
313.15	100	.76	0.0000000003495	.000000000004893
313.15	100	.78	0.0000000003493	4.8902E-12
313.15	100	.8	0.000000000349	.000000000004886
313.15	100	.82	0.0000000003493	4.8902E-12
313.15	100	.84	0.0000000003495	.000000000004893
313.15	100	.86	0.0000000003498	4.8972E-12
313.15	100	.88	0.0000000003508	4.9112E-12
313.15	100	.9	0.0000000003506	4.9084E-12
333.15	100	.1	0.0000000003989	5.5846E-12
333.15	100	.12	0.0000000003969	5.5566E-12
333.15	100	.14	0.0000000003953	5.5342E-12
333.15	100	.16	0.0000000003945	.000000000005523
333.15	100	.18	0.0000000003926	5.4964E-12
333.15	100	.2	0.0000000003915	.000000000005481
333.15	100	.22	0.0000000003907	5.4698E-12
333.15	100	.24	0.0000000003893	5.4502E-12
333.15	100	.26	0.0000000003885	.000000000005439
333.15	100	.28	0.0000000003871	5.4194E-12
333.15	100	.3	0.000000000386	.000000000005404
333.15	100	.32	0.0000000003855	.000000000005397
333.15	100	.34	0.0000000003841	5.3774E-12
333.15	100	.36	0.0000000003833	5.3662E-12
333.15	100	.38	0.0000000003827	5.3578E-12
333.15	100	.4	0.0000000003805	.000000000005327
333.15	100	.6	0.0000000003871	5.4194E-12
333.15	100	.62	0.0000000003849	5.3886E-12
333.15	100	.64	0.0000000003844	5.3816E-12
333.15	100	.66	0.0000000003846	5.3844E-12
333.15	100	.68	0.0000000003849	5.3886E-12
333.15	100	.7	0.0000000003846	5.3844E-12
333.15	100	.72	0.0000000003855	.000000000005397
333.15	100	.74	0.0000000003852	5.3928E-12
333.15	100	.76	0.0000000003855	.000000000005397
333.15	100	.78	0.0000000003857	5.3998E-12
333.15	100	.8	0.0000000003857	5.3998E-12
333.15	100	.82	0.000000000386	.000000000005404
333.15	100	.84	0.000000000386	.000000000005404
333.15	100	.86	0.000000000386	.000000000005404
333.15	100	.88	0.000000000386	.000000000005404
333.15	100	.9	0.000000000386	.000000000005404
293.15	200	.1	0.0000000001566	2.1924E-12
293.15	200	.12	0.0000000001568	2.1952E-12
293.15	200	.14	0.0000000001568	2.1952E-12
293.15	200	.16	0.0000000001565	.000000000002191
293.15	200	.18	0.0000000001564	2.1896E-12
293.15	200	.2	0.0000000001562	2.1868E-12
293.15	200	.22	0.0000000001562	2.1868E-12
293.15	200	.24	0.0000000001558	2.1812E-12
293.15	200	.26	0.0000000001558	2.1812E-12
293.15	200	.28	0.0000000001555	.000000000002177
293.15	200	.3	0.0000000001555	.000000000002177
293.15	200	.32	0.000000000155	.00000000000217
293.15	200	.34	0.000000000155	.00000000000217
293.15	200	.36	0.0000000001545	.000000000002163
293.15	200	.38	0.0000000001542	2.1588E-12
293.15	200	.4	0.0000000001539	2.1546E-12
293.15	200	.6	0.000000000156	.000000000002184
293.15	200	.62	0.0000000001559	2.1826E-12
293.15	200	.64	0.0000000001559	2.1826E-12
293.15	200	.66	0.0000000001559	2.1826E-12
293.15	200	.68	0.0000000001559	2.1826E-12
293.15	200	.7	0.000000000156	.000000000002184
293.15	200	.72	0.0000000001561	2.1854E-12
293.15	200	.74	0.0000000001562	2.1868E-12
293.15	200	.76	0.0000000001564	2.1896E-12
293.15	200	.78	0.0000000001565	.000000000002191
293.15	200	.8	0.0000000001566	2.1924E-12
293.15	200	.82	0.0000000001567	2.1938E-12
293.15	200	.84	0.0000000001568	2.1952E-12
293.15	200	.86	0.000000000157	.000000000002198
293.15	200	.88	0.0000000001571	2.1994E-12
293.15	200	.9	0.0000000001572	2.2008E-12
313.15	200	.1	0.0000000001776	2.4864E-12
313.15	200	.12	0.0000000001772	2.4808E-12
313.15	200	.14	0.0000000001768	2.4752E-12
313.15	200	.16	0.0000000001765	.000000000002471
313.15	200	.18	0.0000000001761	2.4654E-12
313.15	200	.2	0.0000000001759	2.4626E-12
313.15	200	.22	0.0000000001756	2.4584E-12
313.15	200	.24	0.0000000001754	2.4556E-12
313.15	200	.26	0.0000000001751	2.4514E-12
313.15	200	.28	0.0000000001748	2.4472E-12
313.15	200	.3	0.0000000001744	2.4416E-12
313.15	200	.32	0.0000000001742	2.4388E-12
313.15	200	.34	0.0000000001739	2.4346E-12
313.15	200	.36	0.0000000001737	2.4318E-12
313.15	200	.38	0.0000000001732	2.4248E-12
313.15	200	.4	0.0000000001726	2.4164E-12
313.15	200	.6	0.0000000001751	2.4514E-12
313.15	200	.62	0.0000000001751	2.4514E-12
313.15	200	.64	0.000000000175	.00000000000245
313.15	200	.66	0.000000000175	.00000000000245
313.15	200	.68	0.000000000175	.00000000000245
313.15	200	.7	0.000000000175	.00000000000245
313.15	200	.72	0.000000000175	.00000000000245
313.15	200	.74	0.0000000001751	2.4514E-12
313.15	200	.76	0.0000000001752	2.4528E-12
313.15	200	.78	0.0000000001752	2.4528E-12
313.15	200	.8	0.0000000001754	2.4556E-12
313.15	200	.82	0.0000000001755	.000000000002457
313.15	200	.84	0.0000000001756	2.4584E-12
313.15	200	.86	0.0000000001757	2.4598E-12
313.15	200	.88	0.0000000001759	2.4626E-12
313.15	200	.9	0.000000000176	.000000000002464
333.15	200	.1	0.0000000001974	2.7636E-12
333.15	200	.12	0.000000000197	.000000000002758
333.15	200	.14	0.0000000001965	.000000000002751
333.15	200	.16	0.0000000001959	2.7426E-12
333.15	200	.18	0.0000000001955	.000000000002737
333.15	200	.2	0.0000000001951	2.7314E-12
333.15	200	.22	0.0000000001947	2.7258E-12
333.15	200	.24	0.0000000001942	2.7188E-12
333.15	200	.26	0.0000000001938	2.7132E-12
333.15	200	.28	0.0000000001934	2.7076E-12
333.15	200	.3	0.000000000193	.000000000002702
333.15	200	.32	0.0000000001926	2.6964E-12
333.15	200	.34	0.000000000192	.000000000002688
333.15	200	.36	0.0000000001914	2.6796E-12
333.15	200	.38	0.0000000001907	2.6698E-12
333.15	200	.4	0.0000000001898	2.6572E-12
333.15	200	.6	0.0000000001938	2.7132E-12
333.15	200	.62	0.0000000001937	2.7118E-12
333.15	200	.64	0.0000000001936	2.7104E-12
333.15	200	.66	0.0000000001936	2.7104E-12
333.15	200	.68	0.0000000001936	2.7104E-12
333.15	200	.7	0.0000000001936	2.7104E-12
333.15	200	.72	0.0000000001934	2.7076E-12
333.15	200	.74	0.0000000001937	2.7118E-12
333.15	200	.76	0.0000000001937	2.7118E-12
333.15	200	.78	0.0000000001937	2.7118E-12
333.15	200	.8	0.0000000001938	2.7132E-12
333.15	200	.82	0.0000000001938	2.7132E-12
333.15	200	.84	0.000000000194	.000000000002716
333.15	200	.86	0.000000000194	.000000000002716
333.15	200	.88	0.0000000001941	2.7174E-12
333.15	200	.9	0.000000000194	.000000000002716
293.15	500	.1	0.00000000006339	8.8746E-13
293.15	500	.12	0.00000000006324	8.8536E-13
293.15	500	.14	0.0000000000631	8.834E-13
293.15	500	.16	0.000000000063	.000000000000882
293.15	500	.18	0.0000000000629	8.806E-13
293.15	500	.2	0.0000000000628	8.792E-13
293.15	500	.22	0.00000000006271	8.7794E-13
293.15	500	.24	0.00000000006266	8.7724E-13
293.15	500	.26	0.00000000006256	8.7584E-13
293.15	500	.28	0.00000000006246	8.7444E-13
293.15	500	.3	0.00000000006241	8.7374E-13
293.15	500	.32	0.00000000006232	8.7248E-13
293.15	500	.34	0.00000000006222	8.7108E-13
293.15	500	.36	0.00000000006212	8.6968E-13
293.15	500	.38	0.00000000006203	8.6842E-13
293.15	500	.4	0.00000000006188	8.6632E-13
293.15	500	.6	0.00000000006305	8.827E-13
293.15	500	.62	0.00000000006295	8.813E-13
293.15	500	.64	0.00000000006285	8.799E-13
293.15	500	.66	0.0000000000628	8.792E-13
293.15	500	.68	0.0000000000628	8.792E-13
293.15	500	.7	0.0000000000628	8.792E-13
293.15	500	.72	0.0000000000628	8.792E-13
293.15	500	.74	0.0000000000628	8.792E-13
293.15	500	.76	0.0000000000628	8.792E-13
293.15	500	.78	0.00000000006285	8.799E-13
293.15	500	.8	0.00000000006285	8.799E-13
293.15	500	.82	0.0000000000629	8.806E-13
293.15	500	.84	0.0000000000629	8.806E-13
293.15	500	.86	0.00000000006295	8.813E-13
293.15	500	.88	0.000000000063	.000000000000882
293.15	500	.9	0.000000000063	.000000000000882
313.15	500	.1	0.00000000007019	9.8266E-13
313.15	500	.12	0.00000000007003	9.8042E-13
313.15	500	.14	0.00000000006988	9.7832E-13
313.15	500	.16	0.00000000006983	9.7762E-13
313.15	500	.18	0.00000000006967	9.7538E-13
313.15	500	.2	0.00000000006957	9.7398E-13
313.15	500	.22	0.00000000006946	9.7244E-13
313.15	500	.24	0.00000000006936	9.7104E-13
313.15	500	.26	0.0000000000692	9.688E-13
313.15	500	.28	0.0000000000691	9.674E-13
313.15	500	.3	0.00000000006894	9.6516E-13
313.15	500	.32	0.00000000006879	9.6306E-13
313.15	500	.34	0.00000000006858	9.6012E-13
313.15	500	.36	0.00000000006842	9.5788E-13
313.15	500	.38	0.00000000006817	9.5438E-13
313.15	500	.4	0.00000000006785	9.499E-13
313.15	500	.6	0.00000000007092	9.9288E-13
313.15	500	.62	0.00000000007076	9.9064E-13
313.15	500	.64	0.00000000007066	9.8924E-13
313.15	500	.66	0.00000000007055	9.877E-13
313.15	500	.68	0.00000000007055	9.877E-13
313.15	500	.7	0.0000000000705	.000000000000987
313.15	500	.72	0.0000000000705	.000000000000987
313.15	500	.74	0.0000000000705	.000000000000987
313.15	500	.76	0.00000000007055	9.877E-13
313.15	500	.78	0.00000000007055	9.877E-13
313.15	500	.8	0.00000000007061	9.8854E-13
313.15	500	.82	0.00000000007061	9.8854E-13
313.15	500	.84	0.00000000007066	9.8924E-13
313.15	500	.86	0.00000000007071	9.8994E-13
313.15	500	.88	0.00000000007071	9.8994E-13
313.15	500	.9	0.00000000007076	9.9064E-13
333.15	500	.1	0.00000000007821	1.09494E-12
333.15	500	.12	0.00000000007804	1.09256E-12
333.15	500	.14	0.00000000007788	1.09032E-12
333.15	500	.16	0.00000000007771	1.08794E-12
333.15	500	.18	0.00000000007755	1.0857E-12
333.15	500	.2	0.00000000007738	1.08332E-12
333.15	500	.22	0.00000000007722	1.08108E-12
333.15	500	.24	0.00000000007705	1.0787E-12
333.15	500	.26	0.00000000007688	1.07632E-12
333.15	500	.28	0.00000000007672	1.07408E-12
333.15	500	.3	0.0000000000765	.000000000001071
333.15	500	.32	0.00000000007628	1.06792E-12
333.15	500	.34	0.000000000076	.000000000001064
333.15	500	.36	0.00000000007567	1.05938E-12
333.15	500	.38	0.00000000007534	1.05476E-12
333.15	500	.4	0.00000000007479	1.04706E-12
333.15	500	.6	0.00000000007821	1.09494E-12
333.15	500	.62	0.0000000000781	1.0934E-12
333.15	500	.64	0.00000000007799	1.09186E-12
333.15	500	.66	0.00000000007799	1.09186E-12
333.15	500	.68	0.00000000007793	1.09102E-12
333.15	500	.7	0.00000000007793	1.09102E-12
333.15	500	.72	0.00000000007793	1.09102E-12
333.15	500	.74	0.00000000007799	1.09186E-12
333.15	500	.76	0.00000000007799	1.09186E-12
333.15	500	.78	0.00000000007804	1.09256E-12
333.15	500	.8	0.00000000007804	1.09256E-12
333.15	500	.82	0.0000000000781	1.0934E-12
333.15	500	.84	0.0000000000781	1.0934E-12
333.15	500	.86	0.00000000007816	1.09424E-12
333.15	500	.88	0.00000000007816	1.09424E-12
333.15	500	.9	0.00000000007816	1.09424E-12
293.15	1000	.1	0.00000000003105	4.347E-13
293.15	1000	.12	0.000000000031	.000000000000434
293.15	1000	.14	0.00000000003095	4.333E-13
293.15	1000	.16	0.00000000003093	4.3302E-13
293.15	1000	.18	0.00000000003088	4.3232E-13
293.15	1000	.2	0.00000000003083	4.3162E-13
293.15	1000	.22	0.00000000003078	4.3092E-13
293.15	1000	.24	0.00000000003074	4.3036E-13
293.15	1000	.26	0.00000000003069	4.2966E-13
293.15	1000	.28	0.00000000003064	4.2896E-13
293.15	1000	.3	0.00000000003059	4.2826E-13
293.15	1000	.32	0.00000000003052	4.2728E-13
293.15	1000	.34	0.00000000003044	4.2616E-13
293.15	1000	.36	0.00000000003035	4.249E-13
293.15	1000	.38	0.00000000003022	4.2308E-13
293.15	1000	.4	0.0000000000301	4.214E-13
293.15	1000	.6	0.00000000003134	4.3876E-13
293.15	1000	.62	0.00000000003127	4.3778E-13
293.15	1000	.64	0.00000000003125	4.375E-13
293.15	1000	.66	0.00000000003122	4.3708E-13
293.15	1000	.68	0.0000000000312	4.368E-13
293.15	1000	.7	0.0000000000312	4.368E-13
293.15	1000	.72	0.00000000003122	4.3708E-13
293.15	1000	.74	0.00000000003122	4.3708E-13
293.15	1000	.76	0.00000000003125	4.375E-13
293.15	1000	.78	0.00000000003125	4.375E-13
293.15	1000	.8	0.00000000003127	4.3778E-13
293.15	1000	.82	0.00000000003129	4.3806E-13
293.15	1000	.84	0.00000000003132	4.3848E-13
293.15	1000	.86	0.00000000003134	4.3876E-13
293.15	1000	.88	0.00000000003137	4.3918E-13
293.15	1000	.9	0.00000000003139	4.3946E-13
313.15	1000	.1	0.00000000003503	4.9042E-13
313.15	1000	.12	0.00000000003495	4.893E-13
313.15	1000	.14	0.00000000003487	4.8818E-13
313.15	1000	.16	0.00000000003479	4.8706E-13
313.15	1000	.18	0.00000000003471	4.8594E-13
313.15	1000	.2	0.00000000003466	4.8524E-13
313.15	1000	.22	0.00000000003458	4.8412E-13
313.15	1000	.24	0.00000000003451	4.8314E-13
313.15	1000	.26	0.00000000003443	4.8202E-13
313.15	1000	.28	0.00000000003435	4.809E-13
313.15	1000	.3	0.00000000003425	4.795E-13
313.15	1000	.32	0.00000000003414	4.7796E-13
313.15	1000	.34	0.00000000003404	4.7656E-13
313.15	1000	.36	0.00000000003391	4.7474E-13
313.15	1000	.38	0.00000000003373	4.7222E-13
313.15	1000	.4	0.00000000003352	4.6928E-13
313.15	1000	.6	0.00000000003516	4.9224E-13
313.15	1000	.62	0.00000000003508	4.9112E-13
313.15	1000	.64	0.00000000003503	4.9042E-13
313.15	1000	.66	0.000000000035	.00000000000049
313.15	1000	.68	0.000000000035	.00000000000049
313.15	1000	.7	0.000000000035	.00000000000049
313.15	1000	.72	0.000000000035	.00000000000049
313.15	1000	.74	0.000000000035	.00000000000049
313.15	1000	.76	0.000000000035	.00000000000049
313.15	1000	.78	0.00000000003503	4.9042E-13
313.15	1000	.8	0.00000000003503	4.9042E-13
313.15	1000	.82	0.00000000003505	4.907E-13
313.15	1000	.84	0.00000000003505	4.907E-13
313.15	1000	.86	0.00000000003505	4.907E-13
313.15	1000	.88	0.00000000003508	4.9112E-13
313.15	1000	.9	0.0000000000351	4.914E-13
333.15	1000	.1	0.00000000003906	5.4684E-13
333.15	1000	.12	0.00000000003898	5.4572E-13
333.15	1000	.14	0.00000000003887	5.4418E-13
333.15	1000	.16	0.00000000003881	5.4334E-13
333.15	1000	.18	0.00000000003873	5.4222E-13
333.15	1000	.2	0.00000000003865	5.411E-13
333.15	1000	.22	0.00000000003856	5.3984E-13
333.15	1000	.24	0.00000000003848	5.3872E-13
333.15	1000	.26	0.0000000000384	5.376E-13
333.15	1000	.28	0.00000000003831	5.3634E-13
333.15	1000	.3	0.0000000000382	5.348E-13
333.15	1000	.32	0.00000000003812	5.3368E-13
333.15	1000	.34	0.00000000003801	5.3214E-13
333.15	1000	.36	0.00000000003787	5.3018E-13
333.15	1000	.38	0.00000000003768	5.2752E-13
333.15	1000	.4	0.00000000003746	5.2444E-13
333.15	1000	.6	0.00000000003914	5.4796E-13
333.15	1000	.62	0.00000000003906	5.4684E-13
333.15	1000	.64	0.000000000039	.000000000000546
333.15	1000	.66	0.00000000003898	5.4572E-13
333.15	1000	.68	0.00000000003898	5.4572E-13
333.15	1000	.7	0.00000000003895	5.453E-13
333.15	1000	.72	0.00000000003895	5.453E-13
333.15	1000	.74	0.00000000003895	5.453E-13
333.15	1000	.76	0.00000000003898	5.4572E-13
333.15	1000	.78	0.00000000003898	5.4572E-13
333.15	1000	.8	0.000000000039	.000000000000546
333.15	1000	.82	0.000000000039	.000000000000546
333.15	1000	.84	0.00000000003903	5.4642E-13
333.15	1000	.86	0.00000000003903	5.4642E-13
333.15	1000	.88	0.00000000003906	5.4684E-13
333.15	1000	.9	0.00000000003906	5.4684E-13
