Measured thermophysical data. Thermal Conductivities of Imidazolium-Based Ionic  Liquid + CO2 Mixtures
Source: Int. J. Thermophys., 2010, 10.1007/s10765-008-0506-x
Compound 1: 1-butyl-3-methylimidazolium hexafluorophosphate, C8H15F6N2P
Compound 2: 1-butyl-3-methylimidazolium tetrafluoroborate, C8H15BF4N2
Compound 3: carbon dioxide, CO2
Compound 4: 1-methylimidazole, C4H6N2

System: 1-methylimidazole; phases: Liquid
Property: Thermal conductivity, W/m/K (Liquid); method: Hot wire method
Temperature, K	Pressure, kPa	Thermal conductivity, W/m/K	uncertainty
294.2	10000	.194	.00582
294.2	20000	.196	.00588

System: carbon dioxide + 1-butyl-3-methylimidazolium hexafluorophosphate; phases: Liquid
Property: Thermal conductivity, W/m/K (Liquid); method: Hot wire method
Temperature, K	Pressure, kPa	Mole fraction of carbon dioxide	Thermal conductivity, W/m/K	uncertainty
294.4	10000	.108	.148	.00444
294.4	10000	.22	.149	.00447
294.4	10000	.328	.15	.0045
294.4	10000	.42	.148	.00444
294.4	20000	.108	.15	.0045
294.4	20000	.22	.151	.00453
294.4	20000	.328	.152	.00456
294.4	20000	.42	.149	.00447
314.5	10000	.108	.149	.00447
314.5	10000	.22	.149	.00447
314.5	10000	.328	.152	.00456
314.5	10000	.42	.148	.00444
314.5	20000	.108	.151	.00453
314.5	20000	.22	.152	.00456
314.5	20000	.328	.153	.00459
314.5	20000	.42	.148	.00444
334.2	10000	.108	.148	.00444
334.2	10000	.22	.15	.0045
334.2	10000	.328	.15	.0045
334.2	10000	.42	.148	.00444
334.2	20000	.108	.151	.00453
334.2	20000	.22	.152	.00456
334.2	20000	.328	.151	.00453
334.2	20000	.42	.149	.00447

System: carbon dioxide + 1-butyl-3-methylimidazolium tetrafluoroborate; phases: Liquid
Property: Thermal conductivity, W/m/K (Liquid); method: Hot wire method
Temperature, K	Pressure, kPa	Mole fraction of carbon dioxide	Thermal conductivity, W/m/K	uncertainty
294.2	10000	.169	.173	.00519
294.2	10000	.308	.17	.0051
294.2	10000	.422	.171	.00513
294.2	20000	.169	.174	.00522
294.2	20000	.308	.172	.00516
294.2	20000	.422	.171	.00513
314.3	10000	.169	.173	.00519
314.3	10000	.308	.169	.00507
314.3	10000	.422	.17	.0051
314.3	20000	.169	.175	.00525
314.3	20000	.308	.17	.0051
314.3	20000	.422	.17	.0051
334.3	10000	.169	.173	.00519
334.3	10000	.308	.169	.00507
334.3	10000	.422	.169	.00507
334.3	20000	.169	.175	.00525
334.3	20000	.308	.17	.0051
334.3	20000	.422	.169	.00507

System: carbon dioxide + 1-methylimidazole; phases: Liquid
Property: Thermal conductivity, W/m/K (Liquid); method: Hot wire method
Temperature, K	Pressure, kPa	Mole fraction of carbon dioxide	Thermal conductivity, W/m/K	uncertainty
294.2	10000	0	.194	.00582
294.2	10000	.157	.187	.00561
294.2	10000	.261	.184	.00552
294.2	10000	.337	.18	.0054
294.2	10000	.43	.176	.00528
294.2	20000	0	.196	.00588
294.2	20000	.157	.19	.0057
294.2	20000	.261	.187	.00561
294.2	20000	.337	.184	.00552
294.2	20000	.43	.18	.0054
