Measured thermophysical data. Towards Reference Viscosities of Carbon Monoxide and Nitrogen at Low Density Using Measurements between 290K and 680K as well as Theoretically Calculated Viscosities
Source: Int. J. Thermophys., 2012, 10.1007/s10765-012-1185-1
Compound 1: carbon monoxide, CO, purity 99.997%
Compound 2: nitrogen, diatomic, N2, purity 99.9995%

System: carbon monoxide; phases: Gas
Property: Viscosity, Pa*s (Gas); method: Oscillating disk viscometry
Mass density, kg/m3	Temperature, K	Viscosity, Pa*s	uncertainty
.52	292.39	.000017497	.0000000262455
.52	296.81	.000017702	.000000026553
.52	323.95	.000018936	.000000028404
.52	350.09	.000020072	.000000030108
.52	377.81	.000021231	.0000000318465
.52	297.19	.000017715	.0000000265725
.52	405.55	.000022357	.0000000335355
.52	433.45	.000023445	.0000000351675
.52	298.58	.000017776	.000000026664
.52	461.45	.00002451	.000000036765
.52	489.81	.000025571	.0000000383565
.52	298.54	.000017779	.0000000266685
.52	518.44	.000026602	.000000039903
.52	542.05	.000027437	.0000000411555
.52	299.09	.000017804	.000000026706
.52	299.27	.000017811	.0000000267165
.52	593.37	.00002919	.000000043785
.52	622.5	.000030145	.0000000452175
.52	296.74	.000017691	.0000000265365
.52	651.68	.000031102	.000000046653
.52	681.07	.000032029	.0000000480435
.52	288.72	.00001732	.00000002598
.0001	292.39	.00001749	.000000026235
.0001	296.81	.000017696	.000000026544
.0001	323.95	.000018929	.0000000283935
.0001	350.09	.000020066	.000000030099
.0001	377.81	.000021224	.000000031836
.0001	297.19	.000017709	.0000000265635
.0001	405.55	.000022351	.0000000335265
.0001	433.45	.000023438	.000000035157
.0001	298.58	.00001777	.000000026655
.0001	461.45	.000024504	.000000036756
.0001	489.81	.000025565	.0000000383475
.0001	298.54	.000017773	.0000000266595
.0001	518.44	.000026596	.000000039894
.0001	542.05	.000027431	.0000000411465
.0001	299.09	.000017797	.0000000266955
.0001	299.27	.000017804	.000000026706
.0001	593.37	.000029185	.0000000437775
.0001	622.5	.00003014	.00000004521
.0001	296.74	.000017685	.0000000265275
.0001	651.68	.000031097	.0000000466455
.0001	681.07	.000032025	.0000000480375
.0001	288.72	.000017314	.000000025971
.78	323.27	.0000189	.00000002835
.78	349.98	.000020068	.000000030102
.78	377.57	.000021229	.0000000318435
.78	405.3	.000022351	.0000000335265
.78	433.29	.00002345	.000000035175
.78	296.67	.000017699	.0000000265485
.78	461.39	.000024521	.0000000367815
.78	489.68	.000025576	.000000038364
.78	518.13	.000026594	.000000039891
.78	542.09	.000027443	.0000000411645
.78	564.73	.000028219	.0000000423285
.78	593.52	.000029198	.000000043797
.78	622.67	.00003016	.00000004524
.78	651.51	.000031102	.000000046653
.78	680.94	.000032026	.000000048039
.78	288.91	.000017335	.0000000260025
.0001	323.27	.00001889	.000000028335
.0001	349.98	.000020058	.000000030087
.0001	377.57	.000021219	.0000000318285
.0001	405.3	.000022341	.0000000335115
.0001	433.29	.00002344	.00000003516
.0001	296.67	.000017689	.0000000265335
.0001	461.39	.000024512	.000000036768
.0001	489.68	.000025567	.0000000383505
.0001	518.13	.000026585	.0000000398775
.0001	542.09	.000027434	.000000041151
.0001	564.73	.000028211	.0000000423165
.0001	593.52	.00002919	.000000043785
.0001	622.67	.000030153	.0000000452295
.0001	651.51	.000031095	.0000000466425
.0001	680.94	.000032019	.0000000480285
.0001	288.91	.000017325	.0000000259875
.78	296.53	.000017698	.000000026547
.0001	296.53	.000017688	.000000026532

System: nitrogen, diatomic; phases: Gas
Property: Viscosity, Pa*s (Gas); method: Oscillating disk viscometry
Mass density, kg/m3	Temperature, K	Viscosity, Pa*s	uncertainty
.72	296.88	.000017714	.000000026571
.72	324	.000018938	.000000028407
.72	350.42	.000020086	.000000030129
.72	378.04	.000021247	.0000000318705
.72	405.75	.000022367	.0000000335505
.72	433.79	.000023471	.0000000352065
.72	294.73	.000017617	.0000000264255
.72	461.81	.000024533	.0000000367995
.72	490.21	.00002559	.000000038385
.72	518.59	.000026615	.0000000399225
.72	542.47	.000027469	.0000000412035
.72	565.16	.000028249	.0000000423735
.72	594.04	.000029221	.0000000438315
.72	623.22	.000030201	.0000000453015
.72	652.36	.000031142	.000000046713
.72	681.99	.00003209	.000000048135
.72	291.55	.000017474	.000000026211
.0001	296.88	.000017706	.000000026559
.0001	324	.00001893	.000000028395
.0001	350.42	.000020078	.000000030117
.0001	378.04	.000021239	.0000000318585
.0001	405.75	.00002236	.00000003354
.0001	433.79	.000023464	.000000035196
.0001	294.73	.000017609	.0000000264135
.0001	461.81	.000024526	.000000036789
.0001	490.21	.000025583	.0000000383745
.0001	518.59	.000026608	.000000039912
.0001	542.47	.000027463	.0000000411945
.0001	565.16	.000028243	.0000000423645
.0001	594.04	.000029216	.000000043824
.0001	623.22	.000030196	.000000045294
.0001	652.36	.000031137	.0000000467055
.0001	681.99	.000032085	.0000000481275
.0001	291.55	.000017465	.0000000261975
