Measured thermophysical data. Thermal Diffusivity and Speed of Sound of Saturated Pentane from Light Scattering
Source: Int. J. Thermophys., 2014, 10.1007/s10765-014-1718-x
Compound 1: n-pentane, C5H12

System: n-pentane; phases: Liquid, Gas
Property: Thermal diffusivity, m2/s (Liquid); method: Optical interferometry
Temperature, K	Thermal diffusivity, m2/s	uncertainty
306.16	.0000000718	.000000002154
323.16	.0000000684	.000000002052
338.39	.0000000642	.000000001926
353.16	.0000000619	.000000001857
358.13	.0000000607	.000000001821
362.37	.0000000591	.000000001773
368.18	.0000000579	.000000001737
373.47	.0000000574	.000000001722
378.2	.0000000569	.000000001707
383.42	.0000000553	.000000001659
388.15	.0000000545	.000000001635
393.32	.000000054	.00000000162
396.29	.0000000535	.000000001605
399.16	.0000000524	.000000001572
403.33	.0000000516	.000000001548
408.63	.0000000512	.000000001536
413.33	.0000000501	.000000001503
418.39	.0000000493	.000000001479
423.61	.0000000484	.000000001452
428.17	.0000000469	.000000001407
433.29	.0000000458	.000000001374
436.19	.0000000449	.000000001347
439.21	.0000000443	.000000001329
442.35	.0000000438	.000000001314
445.16	.0000000434	.000000001302
448.08	.000000042	.00000000126
451.38	.0000000408	.000000001224
455.2	.0000000384	.000000001152
458.4	.0000000355	.000000001065
460.1	.0000000337	.000000001011
463.41	.0000000304	.000000000912
466.37	.0000000259	.000000000777

System: n-pentane; phases: Gas, Liquid
Property: Thermal diffusivity, m2/s (Gas); method: Optical interferometry
Temperature, K	Thermal diffusivity, m2/s	uncertainty
423.55	.0000002309	.000000006927
428.12	.0000002141	.000000006423
433.15	.0000001923	.000000005769
436.13	.0000001772	.000000005316
438.87	.0000001643	.000000004929
442.09	.0000001492	.000000004476
445.19	.0000001351	.000000004053
448.25	.0000001196	.000000003588
451.23	.0000001081	.000000003243
454.03	.0000000978	.000000002934
457.04	.0000000848	.000000002544
460.05	.0000000723	.000000002169
462.08	.0000000564	.000000001692
464.04	.0000000416	.000000001248
466.12	.0000000345	.000000001035

System: n-pentane; phases: Liquid, Gas
Property: Speed of sound, m/s (Liquid); method: Light diffraction method
Temperature, K	Speed of sound, m/s	uncertainty
308.14	963.73	4.81865
318.45	915.77	4.57885
328.23	866.06	4.3303
338.02	815.68	4.0784
348.32	765.39	3.82695
359.03	715.2	3.576
368.31	667.88	3.3394
379.04	618.28	3.0914
388.52	571.45	2.85725
398.16	529.46	2.6473
406.96	483.6	2.418
417.94	428.66	2.1433
428.38	382.43	1.91215
438.23	327.33	1.63665
448.62	267.2	1.336
457.87	209.66	1.0483
463.27	170.65	.85325
466.14	145.22	.7261
469.33	111.31	.55655

System: n-pentane; phases: Gas, Liquid
Property: Speed of sound, m/s (Gas); method: Light diffraction method
Temperature, K	Speed of sound, m/s	uncertainty
348.68	189.16	.9458
358.22	187.01	.93505
367.9	185.11	.92555
377.79	183.06	.9153
388.18	178.8	.894
398.34	174.99	.87495
408.14	169.99	.84995
418.17	162.61	.81305
428.17	155.41	.77705
433.19	150.86	.7543
438.21	146.71	.73355
443.15	140.85	.70425
447.95	136.18	.6809
453.26	130.15	.65075
458.28	123.99	.61995
463.16	116.39	.58195
