Measured thermophysical data. Reference Viscosity of Argon at Low Density in the Temperature Range from 290 K to 680 K
Source: Int. J. Thermophys., 2010, 10.1007/s10765-010-0760-6
Compound 1: argon, Ar

System: argon; phases: Gas
Property: Viscosity, Pa*s (Gas); method: High precision oscillating disk
Temperature, K	Mass density, kg/m3	Viscosity, Pa*s	uncertainty
293.53	1.1	.000022263	.0000000333945
296.63	1.1	.000022457	.0000000336855
322.92	1.1	.000024128	.000000036192
350.34	1.1	.00002576	.00000003864
377.66	1.1	.000027358	.000000041037
405.29	1.1	.000028922	.000000043383
433.11	1.1	.00003045	.000000045675
461.11	1.1	.000031939	.0000000479085
489.25	1.1	.00003339	.000000050085
517.61	1.1	.000034823	.0000000522345
540.94	1.1	.000035975	.0000000539625
561.1	1.1	.000036957	.0000000554355
589.42	1.1	.0000383	.00000005745
618.99	1.1	.000039668	.000000059502
649.34	1.1	.000041068	.000000061602
678.33	1.1	.00004235	.000000063525
295.93	1.1	.000022432	.000000033648
297.39	1.1	.000022521	.0000000337815
296.87	1.1	.000022475	.0000000337125
323.25	1.1	.000024146	.000000036219
350.34	1.1	.000025768	.000000038652
377.95	1.1	.000027386	.000000041079
405.68	1.1	.000028951	.0000000434265
433.64	1.1	.000030479	.0000000457185
461.75	1.1	.000031975	.0000000479625
490.08	1.1	.000033443	.0000000501645
518.36	1.1	.000034861	.0000000522915
542.18	1.1	.000036024	.000000054036
564.91	1.1	.000037153	.0000000557295
593.8	1.1	.000038501	.0000000577515
623.19	1.1	.000039878	.000000059817
652.35	1.1	.000041192	.000000061788
681.96	1.1	.00004251	.000000063765
291.09	1.1	.000022116	.000000033174
296.8	1.1	.00002249	.000000033735
323.48	1.1	.000024151	.0000000362265
350.45	1.1	.000025777	.0000000386655
378.1	1.1	.000027389	.0000000410835
405.85	1.1	.000028954	.000000043431
433.85	1.1	.00003049	.000000045735
462.03	1.1	.000031992	.000000047988
490.39	1.1	.000033456	.000000050184
518.75	1.1	.000034886	.000000052329
542.58	1.1	.000036068	.000000054102
565.36	1.1	.000037177	.0000000557655
594.12	1.1	.000038525	.0000000577875
623.22	1.1	.000039869	.0000000598035
652.3	1.1	.000041179	.0000000617685
681.82	1.1	.000042496	.000000063744
