Measured thermophysical data. Experimental Study of the Critical Behavior of the Isochoric Heat Capacity of Aqueous Ammonia Mixture
Source: Int. J. Thermophys., 2009, 10.1007/s10765-009-0602-6
Compound 1: ammonia, H3N
Compound 2: water, H2O

System: ammonia + water; phases: Fluid (supercritical or subcritical phases)
Fixed: Mole fraction of ammonia = .2607
Property: Molar heat capacity at constant volume, J/K/mol (Fluid (supercritical or subcritical phases)); method: isochoric heat capacity
Temperature, K	Mass density, kg/m3	Molar heat capacity at constant volume, J/K/mol	uncertainty
585.31	120.03	115.430662724	.13
585.34	120.03	110.245162183168	.12416
585.4	120.03	96.96175668816	.1092
585.48	120.03	94.866246195632	.10684
585.62	120.03	76.930097064672	.08664
585.94	120.03	64.28599985552	.0724
586.02	120.03	59.526704838592	.06704
586.11	120.03	58.123778322408	.06546
586.2	120.03	53.98603302784	.0608
586.28	120.03	54.51878993272	.0614
586.37	120.03	51.14466286848	.0576
595.01	120.03	47.77053580424	.0538
594.78	120.03	43.668307636664	.04918
594.75	120.03	46.34985072456	.0522
594.66	120.03	46.88260762944	.0528
594.58	120.03	43.5084805652	.049
594.14	147.43	103.923113578592	.11704
594.15	147.43	93.037114155544	.10478
594.23	147.43	91.225740678952	.10274
594.32	147.43	82.612837383392	.09304
594.49	147.43	80.428534073384	.09058
594.58	147.43	67.30495564984	.0758
594.66	147.43	62.24376505348	.0701
594.75	147.43	60.8230799738	.0685
594.84	147.43	66.345993221056	.07472
594.92	147.43	53.400000432472	.06014
595.09	147.43	56.720851806224	.06388
595.18	147.43	52.636382202144	.05928
595.44	147.43	50.025873368232	.05634
595.7	147.43	52.760692146616	.05942
605.39	147.43	55.22913247256	.0622
605.47	147.43	52.56534794816	.0592
605.64	147.43	54.749651258168	.06166
605.73	147.43	55.069305401096	.06202
605.82	147.43	55.815165067928	.06286
605.9	147.43	54.483272805728	.06136
597.35	160.07	101.987430157528	.11486
597.38	160.07	81.6893920816	.092
597.43	160.07	69.471500396352	.07824
597.53	160.07	62.616694886896	.07052
597.6	160.07	66.86099156244	.0753
597.69	160.07	65.493582173248	.07376
598.98	160.07	58.265846830376	.06562
599.12	160.07	56.880678877688	.06406
599.24	160.07	59.526704838592	.06704
599.28	160.07	57.431194346064	.06468
608.19	160.07	52.92051921808	.0596
608.4	160.07	53.559827503936	.06032
608.54	160.07	51.748454027344	.05828
608.63	160.07	53.400000432472	.06014
608.72	160.07	52.103625297264	.05868
608.81	160.07	52.47655513068	.0591
608.9	160.07	52.352245186208	.05896
615.18	160.07	57.18257445712	.0644
615.27	160.07	57.36016009208	.0646
615.35	160.07	59.171533568672	.06664
615.52	160.07	57.768607052488	.06506
615.61	160.07	57.147057330128	.06436
615.69	160.07	58.319122520864	.06568
615.78	160.07	59.810841854528	.06736
624.74	160.07	61.657732458112	.06944
624.83	160.07	63.4868644982	.0715
624.99	160.07	62.989624720312	.07094
625.08	160.07	60.947389918272	.06864
625.16	160.07	64.250482728528	.07236
633.07	160.07	67.642368356264	.07618
633.16	160.07	68.707882166024	.07738
633.33	160.07	67.180645705368	.07566
633.49	160.07	68.494779404072	.07714
633.58	160.07	67.411507030816	.07592
633.66	160.07	67.979781062688	.07656
601.16	188.05	106.160692579088	.11956
601.2	188.05	93.94280089384	.1058
601.3	188.05	86.48420422552	.0974
601.38	188.05	66.718923054472	.07514
601.5	188.05	72.09976779376	.0812
601.56	188.05	61.551181077136	.06932
601.75	188.05	64.800998196904	.07298
601.75	195.99	103.8875964516	.117
601.79	195.99	94.795211941648	.10676
601.89	195.99	87.602993725768	.09866
601.98	195.99	77.818025239472	.08764
602.62	195.99	72.881144587584	.08208
606.33	195.99	62.190489362992	.07004
606.41	195.99	62.190489362992	.07004
606.5	195.99	62.439109251936	.07032
606.66	195.99	62.012903728032	.06984
606.75	195.99	62.314799307464	.07018
606.84	195.99	62.119455109008	.06996
609.06	195.99	62.137213672504	.06998
609.14	195.99	62.705487704376	.07062
609.23	195.99	62.279282180472	.07014
609.3	195.99	63.30927886324	.0713
609.4	195.99	62.652212013888	.07056
609.48	195.99	63.184968918768	.07116
609.74	195.99	62.314799307464	.07018
602.26	205.58	105.30828153128	.1186
602.31	205.58	100.51346938736	.1132
602.39	205.58	86.66178986048	.0976
602.48	205.58	75.473894858	.085
602.56	205.58	77.07216557264	.0868
602.74	205.58	73.928899833848	.08326
603.08	205.58	71.265115309448	.08026
603.16	205.58	70.94546116652	.0799
603.25	205.58	73.52045287344	.0828
603.34	205.58	69.684603158304	.07848
603.42	205.58	67.873229681712	.07644
603.51	205.58	72.18856061124	.0813
603.59	205.58	69.009777745456	.07772
602.74	214.83	106.90655224592	.1204
602.82	214.83	102.73328982436	.1157
602.91	214.83	94.280213600264	.10618
602.99	214.83	91.332292059928	.10286
603.08	214.83	91.918324655296	.10352
603.1	214.83	85.32989759828	.0961
603.6	214.83	85.667310304704	.09648
603.68	214.83	84.566279367952	.09524
603.77	214.83	81.813702026072	.09214
603.92	214.83	84.566279367952	.09524
604.04	214.83	80.854739597288	.09106
604.09	214.83	82.559561692904	.09298
604.2	214.83	82.097839042008	.09246
604.28	214.83	79.505088771592	.08954
602.85	218.92	108.50482296056	.1222
602.91	218.92	99.09278430768	.1116
603.01	218.92	92.948321338064	.10468
603.08	218.92	93.463319679448	.10526
603.77	218.92	89.85833128976	.1012
603.86	218.92	86.910409749424	.09788
602.96	224.53	111.026538976992	.12504
602.99	224.53	109.57033677032	.1234
603.08	224.53	102.111740102	.115
603.17	224.53	98.897440109224	.11138
603.25	224.53	95.327968846528	.10736
603.33	224.53	94.901763322624	.10688
603.42	224.53	95.203658902056	.10722
603.85	224.53	93.996076584328	.10586
603.94	224.53	94.901763322624	.10688
604.02	224.53	91.829531837816	.10342
604.11	224.53	94.226937909776	.10612
604.19	224.53	93.250216917496	.10502
604.28	224.53	89.964882670736	.10132
604.36	224.53	91.154706424968	.10266
604.45	224.53	90.83505228204	.1023
602.97	227.54	112.447224056672	.12664
602.99	227.54	102.111740102	.115
603.08	227.54	94.83072906864	.1068
603.16	227.54	89.201264440408	.10046
603.25	227.54	90.781776591552	.10224
603.59	227.54	89.219023003904	.10048
603.68	227.54	87.336615273328	.09836
603.76	227.54	89.272298694392	.10054
603.85	227.54	85.525241796736	.09632
603.93	227.54	84.406452296488	.09506
604.02	227.54	87.54971803528	.0986
604.11	227.54	83.9092125186	.0945
604.19	227.54	84.672830748928	.09536
604.28	227.54	86.39541140804	.0973
602.96	230.31	111.34619311992	.1254
602.99	230.31	103.53242518168	.1166
603.08	230.31	97.84968486296	.1102
603.16	230.31	92.69970144912	.1044
603.26	230.31	91.492119131392	.10304
603.67	230.31	84.992484891856	.09572
603.94	230.31	86.75058267796	.0977
604.12	230.31	81.86697771656	.0922
604.31	230.31	80.09112136696	.0902
604.43	230.31	85.06351914584	.0958
604.52	230.31	82.595078819896	.09302
611.35	230.31	80.26870700192	.0904
611.44	230.31	81.014566668752	.09124
611.52	230.31	77.587163914024	.08738
611.57	230.31	78.333023580856	.08822
611.8	230.31	77.07216557264	.0868
602.91	243.98	106.19620970608	.1196
602.48	243.98	100.06950529996	.1127
602.56	243.98	96.215897021328	.10836
602.65	243.98	98.098304751904	.11048
602.74	243.98	94.91952188612	.1069
603.17	243.98	88.899368860976	.10012
603.26	243.98	86.608514169992	.09754
603.34	243.98	87.691786543248	.09876
603.43	243.98	88.17126775764	.0993
603.51	243.98	85.631793177712	.09644
603.58	243.98	83.269904232744	.09378
603.69	243.98	85.134553399824	.09588
603.78	243.98	82.701630200872	.09314
602.48	260.02	100.06950529996	.1127
602.56	260.02	96.215897021328	.10836
602.65	260.02	98.098304751904	.11048
602.74	260.02	94.91952188612	.1069
603.17	260.02	88.899368860976	.10012
603.26	260.02	86.608514169992	.09754
603.34	260.02	87.691786543248	.09876
603.43	260.02	88.17126775764	.0993
603.51	260.02	85.631793177712	.09644
603.58	260.02	83.269904232744	.09378
603.69	260.02	85.134553399824	.09588
603.78	260.02	82.701630200872	.09314
603.86	260.02	83.323179923232	.09384
602.05	271.09	106.72896661096	.1202
602.08	271.09	104.24276772152	.1174
602.09	271.09	100.442435133376	.11312
602.12	271.09	96.304689838808	.10846
602.24	271.09	93.925042330344	.10578
602.38	271.09	89.023678805448	.10026
602.51	271.09	86.04024013812	.0969
601.34	285.71	107.97206605568	.1216
601.37	285.71	99.590024085568	.11216
601.45	285.71	94.440040671728	.10636
601.54	285.71	89.219023003904	.10048
601.62	285.71	88.899368860976	.10012
601.71	285.71	87.958164995688	.09906
601.05	291.16	111.34619311992	.1254
601.08	291.16	105.112937332824	.11838
601.12	291.16	93.41004398896	.1052
601.21	291.16	94.65314343368	.1066
601.39	291.16	92.220220234728	.10386
601.55	291.16	90.621949520088	.10206
600.93	292.97	112.05653565976	.1262
600.94	292.97	106.054141198112	.11944
601.04	292.97	101.738810268584	.11458
601.11	292.97	94.422282108232	.10634
601.21	292.97	99.732092593536	.11232
600.81	294.44	113.83239200936	.1282
600.85	294.44	111.381710246912	.12544
600.94	294.44	103.905355015096	.11702
601.37	294.44	105.521384293232	.11884
601.45	294.44	102.413635681432	.11534
601.66	294.44	99.98071248248	.1126
601.82	294.44	98.73761303776	.1112
609.48	294.44	91.172464988464	.10268
609.57	294.44	89.272298694392	.10054
609.65	294.44	87.709545106744	.09878
609.74	294.44	89.929365543744	.10128
609.82	294.44	89.023678805448	.10026
600.63	297.6	114.89790581912	.1294
600.72	297.6	112.642568255128	.12686
600.77	297.6	109.730163841784	.12358
600.85	297.6	105.539142856728	.11886
600.94	297.6	103.816562197616	.11692
601.37	297.6	102.839841205336	.11582
601.45	297.6	99.661058339552	.11224
601.54	297.6	101.2238119272	.114
601.97	297.6	100.300366625408	.11296
619.76	297.6	76.255271651824	.08588
619.93	297.6	75.100965024584	.08458
620.01	297.6	77.640439604512	.08744
620.1	297.6	76.823545683696	.08652
600.48	299.79	116.67376216872	.1314
600.5	299.79	112.58929256464	.1268
600.59	299.79	104.740007499408	.11796
600.67	299.79	101.472431816144	.11428
600.77	299.79	98.666578783776	.11112
600.86	299.79	99.554506958576	.11212
601.46	299.79	96.997273815152	.10924
601.53	299.79	99.0039914902	.1115
601.63	299.79	98.435717458328	.11086
601.71	299.79	95.132624648072	.10714
611.19	299.79	81.77818489908	.0921
611.27	299.79	82.097839042008	.09246
611.36	299.79	80.304224128912	.09044
611.44	299.79	81.565082137128	.09186
611.53	299.79	80.943532414768	.09116
611.61	299.79	79.860260041512	.08994
616.69	299.79	82.293183240464	.09268
616.84	299.79	80.339741255904	.09048
616.95	299.79	81.405255065664	.09168
617.05	299.79	82.133356169	.0925
617.13	299.79	79.984569985984	.09008
617.31	299.79	80.499568327368	.09066
617.46	299.79	80.925773851272	.09114
600.29	301.94	117.56169034352	.1324
600.33	301.94	111.70136438984	.1258
600.43	301.94	108.540340087552	.12224
600.51	301.94	105.983106944128	.11936
600.59	301.94	99.678816903048	.11226
601.11	301.94	97.370203648568	.10966
601.19	301.94	94.404523544736	.10632
601.29	301.94	98.169339005888	.11056
601.34	301.94	95.700898679944	.10778
601.45	301.94	92.504357250664	.10418
601.54	301.94	93.569871060424	.10538
611.02	301.94	85.702827431696	.09652
611.1	301.94	86.377652844544	.09728
611.23	301.94	84.690589312424	.09538
611.35	301.94	83.163352851768	.09366
611.44	301.94	83.37645561372	.0939
611.61	301.94	85.134553399824	.09588
600.17	303.47	117.73927597848	.1326
600.25	303.47	110.493782072112	.12444
600.34	303.47	104.011906396072	.11714
600.42	303.47	98.879681545728	.11136
600.5	303.47	94.546592052704	.10648
600.59	303.47	94.404523544736	.10632
600.66	303.47	95.132624648072	.10714
600.02	305.44	119.51513232808	.1346
600.08	305.44	116.14100526384	.1308
600.17	305.44	107.847756111208	.12146
600.25	305.44	102.537945625904	.11548
600.34	305.44	105.13069589632	.1184
600.42	305.44	97.902960553448	.11026
600.77	305.44	101.792085959072	.11464
600.85	305.44	96.127104203848	.10826
600.94	305.44	99.891919665	.1125
601.02	305.44	99.430197014104	.11198
601.11	305.44	95.09710752108	.1071
601.19	305.44	94.511074925712	.10644
599.89	307.35	121.11340304272	.1364
599.99	307.35	117.171001946608	.13196
600.08	307.35	103.337080983224	.11638
600.16	307.35	101.063984855736	.11382
602.13	307.35	96.926239561168	.10916
602.23	307.35	92.380047306192	.10404
602.4	307.35	94.404523544736	.10632
602.48	307.35	89.361091511872	.10064
602.56	307.35	92.184703107736	.10382
610.59	307.35	83.838178264616	.09442
610.68	307.35	83.607316939168	.09416
610.76	307.35	85.099036272832	.09584
610.85	307.35	81.920253407048	.09226
610.93	307.35	80.836981033792	.09104
611.02	307.35	83.411972740712	.09394
611.1	307.35	81.263186557696	.09152
599.78	308.35	124.13235883704	.1398
599.91	308.35	117.597207470512	.13244
599.99	308.35	105.876555563152	.11924
600.08	308.35	100.975192038256	.11372
600.17	308.35	93.640905314408	.10546
600.45	308.35	94.937280449616	.10692
600.62	308.35	91.030396480496	.10252
600.8	308.35	92.664184322128	.10436
600.98	308.35	89.183505876912	.10044
609.65	308.35	76.859062810688	.08656
609.82	308.35	74.710276627672	.08414
609.91	308.35	78.67043628728	.0886
609.99	308.35	77.818025239472	.08764
610.08	308.35	76.770269993208	.08646
599.67	309.95	126.26338645656	.1422
599.74	309.95	122.907017955816	.13842
599.78	309.95	120.40306050288	.1356
599.82	309.95	110.511540635608	.12446
599.91	309.95	104.189492031032	.11734
599.99	309.95	102.573462752896	.11552
600.35	309.95	100.016229609472	.11264
600.42	309.95	99.199335688656	.11172
600.51	309.95	100.7798478398	.1135
600.59	309.95	100.975192038256	.11372
600.69	309.95	95.487795917992	.10754
607.78	309.95	83.500765558192	.09404
607.87	309.95	80.854739597288	.09106
607.95	309.95	86.430928535032	.09734
608.04	309.95	82.985767216808	.09346
608.21	309.95	84.228866661528	.09486
608.21	309.95	84.228866661528	.09486
616.2	309.95	81.902494843552	.09224
616.28	309.95	81.263186557696	.09152
616.37	309.95	80.499568327368	.09066
616.45	309.95	78.617160596792	.08854
616.55	309.95	82.93249152632	.0934
599.57	311.19	125.37545828176	.1412
599.63	311.19	116.922382057664	.13168
599.74	311.19	119.745993653528	.13486
599.82	311.19	114.134287588792	.12854
602.91	311.19	90.497639575616	.10192
602.99	311.19	92.664184322128	.10436
603.08	311.19	88.26006057512	.0994
603.16	311.19	86.999202566904	.09798
603.25	311.19	89.85833128976	.1012
603.42	311.19	88.61523184504	.0998
610.42	311.19	84.406452296488	.09506
610.51	311.19	81.050083795744	.09128
610.53	311.19	82.168873295992	.09254
610.77	311.19	80.00232854948	.0901
610.84	311.19	82.417493184936	.09282
615.86	311.19	80.588361144848	.09076
615.94	311.19	82.257666113472	.09264
616.03	311.19	78.261989326872	.08814
616.2	311.19	79.078883247688	.08906
616.37	311.19	78.04888656492	.0879
599.42	312.91	124.13235883704	.1398
599.48	312.91	116.49617653376	.1312
599.57	312.91	107.918790365192	.12154
599.65	312.91	98.790888728248	.11126
599.74	312.91	95.523313044984	.10758
599.99	312.91	91.509877694888	.10306
602.14	312.91	83.145594288272	.09364
602.22	312.91	82.808181581848	.09326
602.3	312.91	81.103359486232	.09134
602.39	312.91	81.724909208592	.09204
602.48	312.91	84.690589312424	.09538
610.17	312.91	84.033522463072	.09464
610.25	312.91	83.0212843438	.0935
610.33	312.91	81.991287661032	.09234
610.42	312.91	81.6893920816	.092
610.51	312.91	81.849219153064	.09218
610.59	312.91	80.765946779808	.09096
615.94	312.91	84.140073844048	.09476
616.03	312.91	81.618357827616	.09192
616.2	312.91	78.119920818904	.08798
616.29	312.91	77.143199826624	.08688
616.37	312.91	80.694912525824	.09088
598.96	320.33	120.793748899792	.13604
599.05	320.33	119.07116824068	.1341
599.14	320.33	116.602727914736	.13132
599.22	320.33	116.478417970264	.13118
599.31	320.33	114.223080406272	.12864
599.39	320.33	116.94014062116	.1317
600.94	320.33	94.884004759128	.10686
601.02	320.33	95.949518568888	.10806
601.11	320.33	90.053675488216	.10142
601.19	320.33	88.79281748	.1
601.28	320.33	91.030396480496	.10252
601.47	320.33	92.69970144912	.1044
609.4	320.33	87.425408090808	.09846
609.48	320.33	84.26438378852	.0949
609.57	320.33	85.969205884136	.09682
609.65	320.33	80.694912525824	.09088
609.74	320.33	83.429731304208	.09396
598.33	329	117.38410470856	.1322
598.45	329	113.210842287	.1275
598.54	329	109.57033677032	.1234
598.71	329	102.768806951352	.11574
599.05	329	107.403792023808	.12096
599.22	329	100.282608061912	.11294
599.31	329	97.192618013608	.10946
605.13	329	85.880413066656	.09672
605.22	329	88.224543448128	.09936
605.3	329	82.39973462144	.0928
605.39	329	83.73162688364	.0943
605.56	329	84.157832407544	.09478
616.24	329	79.096641811184	.08908
616.45	329	75.456136294504	.08498
616.54	329	77.16095839012	.0869
616.62	329	76.27303021532	.0859
616.71	329	76.770269993208	.08646
597.56	342.18	110.99102185	.125
597.59	342.18	106.693449483968	.12016
597.67	342.18	101.081743419232	.11384
597.76	342.18	93.623146750912	.10544
597.85	342.18	99.128301434672	.11164
597.93	342.18	94.333489290752	.10624
598.02	342.18	93.019355592048	.10476
600.9	342.18	88.828334606992	.10004
601.02	342.18	87.425408090808	.09846
601.24	342.18	88.828334606992	.10004
601.37	342.18	89.32557438488	.1006
602.48	342.18	86.555238479504	.09748
602.56	342.18	87.354373836824	.09838
602.74	342.18	87.425408090808	.09846
602.91	342.18	82.896974399328	.09336
602.99	342.18	84.903692074376	.09562
607.69	342.18	76.3618230328	.086
607.78	342.18	81.103359486232	.09134
607.86	342.18	78.563884906304	.08848
607.95	342.18	76.042168889872	.08564
612.29	342.18	78.22647219988	.0881
612.55	342.18	77.214234080608	.08696
612.63	342.18	78.705953414272	.08864
612.8	342.18	78.261989326872	.08814
618.23	342.18	78.084403691912	.08794
618.32	342.18	77.480612533048	.08726
618.5	342.18	78.297506453864	.08818
618.57	342.18	78.49285065232	.0884
618.66	342.18	76.770269993208	.08646
595.16	376.89	99.09278430768	.1116
595.18	376.89	96.837446743688	.10906
595.27	376.89	95.54107160848	.1076
595.44	376.89	96.07382851336	.1082
595.53	376.89	92.69970144912	.1044
595.61	376.89	94.848487632136	.10682
595.78	376.89	89.449884329352	.10074
595.87	376.89	91.172464988464	.10268
595.96	376.89	88.43764621008	.0996
595.78	376.89	89.449884329352	.10074
595.87	376.89	91.172464988464	.10268
595.96	376.89	88.43764621008	.0996
597.16	376.89	87.9048893052	.099
597.5	376.89	85.95144732064	.0968
597.68	376.89	88.277819138616	.09942
597.93	376.89	82.417493184936	.09282
598.28	376.89	83.589558375672	.09414
598.97	376.89	81.565082137128	.09186
601.88	376.89	79.0256075572	.089
601.97	376.89	76.681477175728	.08636
602.05	376.89	80.09112136696	.0902
602.48	376.89	81.209910867208	.09146
602.65	376.89	81.085600922736	.09132
602.74	376.89	79.29198600964	.0893
606.41	376.89	80.517326890864	.09068
606.58	376.89	81.476289319648	.09176
606.67	376.89	83.039042907296	.09352
606.76	376.89	82.080080478512	.09244
606.84	376.89	79.682674406552	.08974
607.86	376.89	79.345261700128	.08936
607.95	376.89	80.250948438424	.09038
608.04	376.89	78.865780485736	.08882
608.12	376.89	77.036648445648	.08676
608.21	376.89	75.9178589454	.0855
608.29	376.89	79.416295954112	.08944
608.38	376.89	76.18423739784	.0858
612.46	376.89	76.397340159792	.08604
612.55	376.89	78.49285065232	.0884
612.63	376.89	74.834586572144	.08428
612.8	376.89	75.580446238976	.08512
612.89	376.89	77.498371096544	.08728
584.95	456.58	82.04456335152	.0924
584.98	456.58	80.97904954176	.0912
585.16	456.58	80.570602581352	.09074
585.42	456.58	79.895777168504	.08998
585.5	456.58	80.26870700192	.0904
585.68	456.58	78.279747890368	.08816
587.06	456.58	75.402860604016	.08492
587.06	456.58	75.402860604016	.08492
587.24	456.58	75.971134635888	.08556
587.41	456.58	75.314067786536	.08482
587.5	456.58	74.461656738728	.08386
587.58	456.58	76.18423739784	.0858
595.1	456.58	70.874426912536	.07982
595.18	456.58	70.110808682208	.07896
595.35	456.58	71.12304680148	.0801
595.44	456.58	68.761157856512	.07744
595.53	456.58	71.336149563432	.08034
595.61	456.58	68.530296531064	.07718
595.7	456.58	70.963219730016	.07992
599.31	456.58	67.322714213336	.07582
599.48	456.58	66.878750125936	.07532
599.65	456.58	66.452544602032	.07484
599.82	456.58	66.86099156244	.0753
602.48	456.58	66.203924713088	.07456
602.65	456.58	68.54805509456	.0772
602.82	456.58	67.553575538784	.07608
580.18	476.25	77.2497512076	.087
580.21	476.25	73.60924569092	.0829
580.3	476.25	69.737878848792	.07854
580.56	476.25	68.423745150088	.07706
580.74	476.25	68.45926227708	.0771
580.92	476.25	67.83771255472	.0764
581.01	476.25	68.477020840576	.07712
580.92	476.25	67.83771255472	.0764
581.01	476.25	68.477020840576	.07712
581.09	476.25	67.713402610248	.07626
581.18	476.25	67.340472776832	.07584
581.36	476.25	66.274958967072	.07464
581.54	476.25	66.754440181464	.07518
581.62	476.25	66.079614768616	.07442
584.62	476.25	65.813236316176	.07412
584.71	476.25	65.014100958856	.07322
584.8	476.25	64.64117112544	.0728
584.88	476.25	65.315996538288	.07356
584.97	476.25	65.2627208478	.0735
585.15	476.25	64.623412561944	.07278
561.03	552.58	73.200798730512	.08244
561.19	552.58	70.732358404568	.07966
561.25	552.58	66.701164490976	.07512
561.34	552.58	64.800998196904	.07298
561.52	552.58	64.055138530072	.07214
561.61	552.58	62.439109251936	.07032
561.7	552.58	64.392551236496	.07252
561.88	552.58	63.238244609256	.07122
561.97	552.58	62.794280521856	.07072
562.06	552.58	61.426871132664	.06918
545.62	594.32	71.30063243644	.0803
545.71	594.32	69.649086031312	.07844
545.8	594.32	69.151846253424	.07788
546.08	594.32	68.45926227708	.0771
546.17	594.32	67.4825412848	.076
546.35	594.32	68.477020840576	.07712
546.62	594.32	67.145128578376	.07562
546.71	594.32	66.470303165528	.07486
547.07	594.32	65.61789211772	.0739
547.17	594.32	66.32823465756	.0747
547.5	594.32	65.52909930024	.0738
547.79	594.32	65.458065046256	.07372
547.98	594.32	63.913070022104	.07198
549.8	594.32	63.771001514136	.07182
549.98	594.32	62.971866156816	.07092
550.07	594.32	63.735484387144	.07178
550.16	594.32	63.451347371208	.07146
550.34	594.32	63.557898752184	.07158
519.77	649.65	68.814433547	.0775
519.87	649.65	68.228400951632	.07684
520.05	649.65	65.990821951136	.07432
520.14	649.65	66.914267252928	.07536
520.24	649.65	67.269438522848	.07576
520.33	649.65	64.872032450888	.07306
520.42	649.65	66.630130236992	.07504
520.52	649.65	67.091852887888	.07556
520.79	649.65	65.866512006664	.07418
520.98	649.65	65.387030792272	.07364
521.17	649.65	66.896508689432	.07534
521.35	649.65	66.718923054472	.07514
521.45	649.65	66.06185620512	.0744
521.54	649.65	65.813236316176	.07412
526.45	649.65	63.84203576812	.0719
526.64	649.65	63.735484387144	.07178
526.82	649.65	63.433588807712	.07144
527.01	649.65	63.646691569664	.07168
527.19	649.65	62.829797648848	.07076
527.28	649.65	63.362554553728	.07136
508.07	671.23	68.246159515128	.07686
508.26	671.23	68.139608134152	.07674
508.36	671.23	68.3704694596	.077
508.45	671.23	67.535816975288	.07606
508.54	671.23	67.606851229272	.07614
508.64	671.23	67.180645705368	.07566
509.01	671.23	68.477020840576	.07712
509.11	671.23	67.695644046752	.07624
509.3	671.23	67.890988245208	.07646
509.39	671.23	66.736681617968	.07516
509.67	671.23	67.091852887888	.07556
513.42	671.23	65.52909930024	.0738
513.61	671.23	65.049618085848	.07326
513.8	671.23	65.600133554224	.07388
516.88	671.23	63.540140188688	.07156
517.07	671.23	63.149451791776	.07112
517.26	671.23	63.060658974296	.07102
517.44	671.23	63.273761736248	.07126
517.63	671.23	62.439109251936	.07032
517.82	671.23	63.4868644982	.0715

System: ammonia + water; phases: Liquid, Gas
Fixed: Mole fraction of ammonia = .2607
Property: Mass density, kg/m3 (Liquid); method: Other PVT measurement
Temperature, K	Mass density, kg/m3	uncertainty
508.07	671.23	.335615
519.77	649.65	.324825
545.62	594.32	.29716
561.03	552.58	.27629
565.36	540.25	.270125
580.18	476.26	.23813
584.95	456.58	.22829
595.16	376.89	.188445
597.56	342.19	.171095
598.33	329	.1645
598.96	320.33	.160165
599.42	312.91	.156455
599.57	311.19	.155595
599.67	310.95	.155475
599.78	308.35	.154175
599.89	307.35	.153675
600.02	305.44	.15272
600.17	303.47	.151735
600.29	301.94	.15097
600.48	299.79	.149895
600.63	297.6	.1488
600.81	295.31	.147655
600.93	292.97	.146485
601.05	291.16	.14558
601.34	285.71	.142855
602.05	271.09	.135545
602.45	260.02	.13001
602.91	243.98	.12199
602.96	230.31	.115155
602.97	227.54	.11377
602.96	224.53	.112265
602.85	218.92	.10946
602.74	214.83	.107415
602.26	206	.103
601.75	195.99	.097995
601.16	188.05	.094025
597.36	160.07	.080035
594.14	147.43	.073715
585.31	120.03	.060015

System: ammonia + water; phases: Liquid, Gas
Fixed: Mole fraction of ammonia = .2607
Property: Molar heat capacity at constant volume, J/K/mol (Liquid); method: Isochoric heat capacity
Temperature, K	Molar heat capacity at constant volume, J/K/mol	uncertainty
508.07	68.246159515128	.07686
519.77	68.814433547	.0775
545.62	71.30063243644	.0803
561.03	73.200798730512	.08244
565.36	73.52045287344	.0828
580.18	77.2497512076	.087
584.95	82.04456335152	.0924
595.16	99.09278430768	.1116
597.56	110.99102185	.125
598.33	117.38410470856	.1322
598.96	120.793748899792	.13604
599.42	124.13235883704	.1398
599.57	125.37545828176	.1412
599.67	126.26338645656	.1422
599.78	124.13235883704	.1398
599.89	121.11340304272	.1364
600.02	119.51513232808	.1346
600.17	118.62720415328	.1336
600.29	117.56169034352	.1324
600.48	116.67376216872	.1314
600.63	114.89790581912	.1294
600.81	113.83239200936	.1282
600.93	112.05653565976	.1262
601.05	111.34619311992	.1254
601.34	107.97206605568	.1216
602.05	106.72896661096	.1202
602.45	105.13069589632	.1184
602.91	106.19620970608	.1196
602.96	111.34619311992	.1254
602.97	112.447224056672	.12664
602.96	111.026538976992	.12504
602.85	108.50482296056	.1222
602.74	106.90655224592	.1204
602.26	105.30828153128	.1186
601.75	103.8875964516	.117
601.16	102.608979879888	.11556
597.36	101.987430157528	.11486
594.14	103.923113578592	.11704
585.31	115.430662724	.13
