Measured thermophysical data. Viscosity and Thermal Conductivity of 1-Hexyl-3-methylimidazolium Tetrafluoroborate and 1-Octyl-3-methylimidazolium Tetrafluoroborate at Pressures up to 20 MPa
Source: Int. J. Thermophys., 2012, 10.1007/s10765-012-1233-x
Compound 1: 1-hexyl-3-methylimidazolium tetrafluoroborate, C10H19BF4N2
Compound 2: 1-methyl-3-octylimidazolium tetrafluoroborate, C12H23BF4N2

System: 1-hexyl-3-methylimidazolium tetrafluoroborate; phases: Liquid
Property: Mass density, kg/m3 (Liquid); method: Vibrating tube method
Temperature, K	Pressure, kPa	Mass density, kg/m3	uncertainty
293.15	100	1148.6	2.2972
293.15	5000	1151.2	2.3024
293.15	10000	1153.5	2.307
293.15	15000	1155.8	2.3116
293.15	20000	1158.2	2.3164
313.15	100	1134.1	2.2682
313.15	5000	1136.7	2.2734
313.15	10000	1139.4	2.2788
313.15	15000	1141.8	2.2836
313.15	20000	1144.2	2.2884
333.15	100	1120.5	2.241
333.15	5000	1123.1	2.2462
333.15	10000	1125.8	2.2516
333.15	15000	1128.5	2.257
333.15	20000	1131.1	2.2622
353.15	100	1107.1	2.2142
353.15	5000	1109.9	2.2198
353.15	10000	1112.7	2.2254
353.15	15000	1115.5	2.231
353.15	20000	1118.3	2.2366

System: 1-hexyl-3-methylimidazolium tetrafluoroborate; phases: Liquid
Property: Viscosity, Pa*s (Liquid); method: Falling or rolling sphere viscometry
Temperature, K	Pressure, kPa	Viscosity, Pa*s	uncertainty
293.15	100	.286	.004576
293.15	5000	.302	.004832
293.15	10000	.318	.005088
293.15	15000	.345	.00552
293.15	20000	.372	.005952
313.15	100	.0929	.0014864
313.15	5000	.0987	.0015792
313.15	10000	.104	.001664
313.15	15000	.109	.001744
313.15	20000	.115	.00184
333.15	100	.0404	.0006464
333.15	5000	.0425	.00068
333.15	10000	.0444	.0007104
333.15	15000	.0455	.000728
333.15	20000	.0482	.0007712
353.15	100	.0212	.0003392
353.15	5000	.0223	.0003568
353.15	10000	.0227	.0003632
353.15	15000	.0239	.0003824
353.15	20000	.0243	.0003888

System: 1-hexyl-3-methylimidazolium tetrafluoroborate; phases: Liquid
Property: Thermal conductivity, W/m/K (Liquid); method: Hot wire method
Temperature, K	Pressure, kPa	Thermal conductivity, W/m/K	uncertainty
294.2	100	.166	.003984
294.2	10000	.168	.004032
294.2	20000	.17	.00408
314.3	100	.165	.00396
314.3	10000	.168	.004032
314.3	20000	.169	.004056
334.4	100	.164	.003936
334.4	10000	.167	.004008
334.4	20000	.169	.004056

System: 1-methyl-3-octylimidazolium tetrafluoroborate; phases: Liquid
Property: Mass density, kg/m3 (Liquid); method: Vibrating tube method
Temperature, K	Pressure, kPa	Mass density, kg/m3	uncertainty
293.15	100	1107.1	2.2142
293.15	5000	1109.7	2.2194
293.15	10000	1112.2	2.2244
293.15	15000	1114.6	2.2292
293.15	20000	1117	2.234
313.15	100	1093.5	2.187
313.15	5000	1096.1	2.1922
313.15	10000	1098.8	2.1976
313.15	15000	1101.4	2.2028
313.15	20000	1103.9	2.2078
333.15	100	1079.8	2.1596
333.15	5000	1082.6	2.1652
333.15	10000	1085.4	2.1708
333.15	15000	1088.1	2.1762
333.15	20000	1090.8	2.1816
353.15	100	1066.8	2.1336
353.15	5000	1069.7	2.1394
353.15	10000	1072.7	2.1454
353.15	15000	1075.5	2.151
353.15	20000	1078.3	2.1566

System: 1-methyl-3-octylimidazolium tetrafluoroborate; phases: Liquid
Property: Viscosity, Pa*s (Liquid); method: Falling or rolling sphere viscometry
Temperature, K	Pressure, kPa	Viscosity, Pa*s	uncertainty
293.15	100	.472	.007552
293.15	5000	.51	.00816
293.15	10000	.537	.008592
293.15	15000	.572	.009152
293.15	20000	.649	.010384
313.15	100	.146	.002336
313.15	5000	.157	.002512
313.15	10000	.166	.002656
313.15	15000	.175	.0028
313.15	20000	.188	.003008
333.15	100	.058	.000928
333.15	5000	.0606	.0009696
333.15	10000	.0636	.0010176
333.15	15000	.0664	.0010624
333.15	20000	.0698	.0011168
353.15	100	.0281	.0004496
353.15	5000	.0298	.0004768
353.15	10000	.0308	.0004928
353.15	15000	.0321	.0005136
353.15	20000	.0334	.0005344

System: 1-methyl-3-octylimidazolium tetrafluoroborate; phases: Liquid
Property: Thermal conductivity, W/m/K (Liquid); method: Hot wire method
Temperature, K	Pressure, kPa	Thermal conductivity, W/m/K	uncertainty
294.2	100	.164	.003936
294.2	10000	.165	.00396
294.2	20000	.167	.004008
314.3	100	.163	.003912
314.3	10000	.164	.003936
314.3	20000	.166	.003984
334.4	100	.16	.00384
334.4	10000	.162	.003888
334.4	20000	.164	.003936
