Measured thermophysical data. Physical Properties and Thermal Decomposition  of Aqueous Solutions of 2-Amino-2-hydroxymethyl-1,3-propanediol (AHPD)
Source: Int. J. Thermophys., 2011, 10.1007/s10765-011-1065-0
Compound 1: 1,3-propanediol, 2-amino-2-(hydroxymethyl)-, C4H11NO3
Compound 2: water, H2O

System: 1,3-propanediol, 2-amino-2-(hydroxymethyl)- + water; phases: Liquid
Fixed: Pressure, kPa = 101
Property: Mass density, kg/m3 (Liquid); method: Vibrating tube method
Mass fraction of 1,3-propanediol, 2-amino-2-(hydroxymethyl)-	Temperature, K	Mass density, kg/m3	uncertainty
.01	298.15	999.594	.03
.01	303.15	998.179	.03
.01	308.15	996.545	.03
.01	313.15	994.713	.03
.01	318.15	992.697	.03
.01	323.15	990.505	.03
.01	328.15	988.136	.03
.01	333.15	985.655	.03
.07	298.15	1014.998	.03
.07	303.15	1013.397	.03
.07	308.15	1011.654	.03
.07	313.15	1009.73	.03
.07	318.15	1007.632	.03
.07	323.15	1005.374	.03
.07	328.15	1002.961	.03
.07	333.15	1000.403	.03
.13	298.15	1030.491	.03
.13	303.15	1028.823	.03
.13	308.15	1026.97	.03
.13	313.15	1024.948	.03
.13	318.15	1022.766	.03
.13	323.15	1020.405	.03
.13	328.15	1017.912	.03
.13	333.15	1015.284	.03
.19	298.15	1047.134	.03
.19	303.15	1045.329	.03
.19	308.15	1043.356	.03
.19	313.15	1041.225	.03
.19	318.15	1038.948	.03
.19	323.15	1036.536	.03
.19	328.15	1033.984	.03
.19	333.15	1031.31	.03
.25	298.15	1062.841	.03
.25	303.15	1060.91	.03
.25	308.15	1058.823	.03
.25	313.15	1056.597	.03
.25	318.15	1054.235	.03
.25	323.15	1051.747	.03
.25	328.15	1049.127	.03
.25	333.15	1046.383	.03

System: 1,3-propanediol, 2-amino-2-(hydroxymethyl)- + water; phases: Liquid
Fixed: Pressure, kPa = 101
Property: Viscosity, Pa*s (Liquid); method: Capillary tube (Ostwald; Ubbelohde) method
Mass fraction of 1,3-propanediol, 2-amino-2-(hydroxymethyl)-	Temperature, K	Viscosity, Pa*s	uncertainty
.01	298.15	.00091	.0000091
.01	303.15	.00079	.0000079
.01	308.15	.00069	.0000069
.01	313.15	.00062	.0000062
.01	318.15	.00058	.0000058
.01	323.15	.00052	.0000052
.01	328.15	.00048	.0000048
.01	333.15	.00045	.0000045
.07	298.15	.00103	.0000103
.07	303.15	.00091	.0000091
.07	308.15	.00079	.0000079
.07	313.15	.00071	.0000071
.07	318.15	.00065	.0000065
.07	323.15	.0006	.000006
.07	328.15	.00055	.0000055
.07	333.15	.00051	.0000051
.13	298.15	.00118	.0000118
.13	303.15	.00105	.0000105
.13	308.15	.00094	.0000094
.13	313.15	.00085	.0000085
.13	318.15	.00077	.0000077
.13	323.15	.00071	.0000071
.13	328.15	.00064	.0000064
.13	333.15	.00059	.0000059
.19	298.15	.00146	.0000146
.19	303.15	.00128	.0000128
.19	308.15	.00114	.0000114
.19	313.15	.00103	.0000103
.19	318.15	.00093	.0000093
.19	323.15	.00084	.0000084
.19	328.15	.00077	.0000077
.19	333.15	.0007	.000007
.28	298.15	.00197	.0000197
.28	303.15	.00177	.0000177
.28	308.15	.00154	.0000154
.28	313.15	.00137	.0000137
.28	318.15	.00122	.0000122
.28	323.15	.00111	.0000111
.28	328.15	.00102	.0000102
.28	333.15	.0009	.000009

System: 1,3-propanediol, 2-amino-2-(hydroxymethyl)- + water; phases: Liquid
Fixed: Pressure, kPa = 101
Property: Refractive index (Na D-line) (Liquid); method: Standard Abbe refractometry
Mass fraction of 1,3-propanediol, 2-amino-2-(hydroxymethyl)-	Temperature, K	Refractive index (Na D-line)	uncertainty
.01	298.15	1.33659	.0003
.01	303.15	1.33591	.0003
.01	308.15	1.3353	.0003
.01	313.15	1.33457	.0003
.01	323.15	1.3331	.0003
.01	333.15	1.33132	.0003
.07	298.15	1.34538	.0003
.07	303.15	1.34463	.0003
.07	308.15	1.34401	.0003
.07	313.15	1.34331	.0003
.07	323.15	1.34178	.0003
.07	333.15	1.34018	.0003
.13	298.15	1.35418	.0003
.13	303.15	1.3537	.0003
.13	308.15	1.35306	.0003
.13	313.15	1.35221	.0003
.13	323.15	1.35083	.0003
.13	333.15	1.34919	.0003
.19	298.15	1.36343	.0003
.19	303.15	1.36275	.0003
.19	308.15	1.36225	.0003
.19	313.15	1.36151	.0003
.19	323.15	1.36031	.0003
.19	333.15	1.35921	.0003
.25	298.15	1.37271	.0003
.25	303.15	1.37212	.0003
.25	308.15	1.37151	.0003
.25	313.15	1.37079	.0003
.25	323.15	1.36971	.0003
.25	333.15	1.36819	.0003

System: 1,3-propanediol, 2-amino-2-(hydroxymethyl)- + water; phases: Liquid, Gas
Property: Surface tension liquid-gas, N/m (Liquid); method: Pendant drop shape
Mass fraction of 1,3-propanediol, 2-amino-2-(hydroxymethyl)-	Temperature, K	Surface tension liquid-gas, N/m	uncertainty
.01	298.15	.07195	.00003
.01	303.15	.07079	.00003
.01	308.15	.06926	.00003
.01	313.15	.06831	.00003
.01	323.15	.06631	.00003
.01	333.15	.06428	.00003
.07	298.15	.06781	.00003
.07	303.15	.06675	.00003
.07	308.15	.06559	.00003
.07	313.15	.06446	.00003
.07	323.15	.06272	.00003
.07	333.15	.06119	.00003
.13	298.15	.06337	.00003
.13	303.15	.06259	.00003
.13	308.15	.06188	.00003
.13	313.15	.06099	.00003
.13	323.15	.05975	.00003
.13	333.15	.05822	.00003
.19	298.15	.06005	.00003
.19	303.15	.05941	.00003
.19	308.15	.05862	.00003
.19	313.15	.05781	.00003
.19	323.15	.05665	.00003
.19	333.15	.05511	.00003
.25	298.15	.05677	.00003
.25	303.15	.05601	.00003
.25	308.15	.05519	.00003
.25	313.15	.05449	.00003
.25	323.15	.05313	.00003
.25	333.15	.05179	.00003
