Measured thermophysical data. Solubility of Baicalein in Different Solvents from (287 to 323) K
Source: Int. J. Thermophys., 2014, 10.1007/s10765-014-1740-z
Compound 1: baicalein, C15H10O5
Compound 2: methanol, CH4O, purity 99.8%
Compound 3: ethanol, C2H6O, purity 99.9%
Compound 4: n-propanol, C3H8O, purity 99.5%
Compound 5: propan-2-ol, C3H8O, purity 99.8%
Compound 6: n-butanol, C4H10O, purity 99.8%
Compound 7: isobutanol, C4H10O, purity 99.8%
Compound 8: 1,3-propanediol, C3H8O2, purity 99.8%
Compound 9: ethyl acetate, C4H8O2, purity 99.8%

System: baicalein; phases: Crystal, Liquid, Air at 1 atmosphere
Property: Triple point temperature, K (Crystal); method: Visual observation
Triple point temperature, K	uncertainty
537	5

System: methanol + baicalein; phases: Liquid, Crystal
Fixed: Pressure, kPa = 101
Property: Mole fraction of baicalein (Liquid); method: Chromatography
Temperature, K	Mole fraction of baicalein	uncertainty
287	.0009118	.000009118
289	.0009209	.000009209
293	.000946	.00000946
297	.0009684	.000009684
301	.0009886	.000009886
305	.0010077	.000010077
309	.001038	.00001038
313	.0010602	.000010602
318	.0011044	.000011044
323	.0011529	.000011529

System: ethanol + baicalein; phases: Liquid, Crystal
Fixed: Pressure, kPa = 101
Property: Mole fraction of baicalein (Liquid); method: Chromatography
Temperature, K	Mole fraction of baicalein	uncertainty
287	.0010041	.000010041
289	.0010175	.000010175
293	.0010452	.000010452
297	.0010756	.000010756
301	.0011191	.000011191
305	.0011508	.000011508
309	.0011915	.000011915
313	.0012527	.000012527
318	.0013359	.000013359
323	.0014804	.000014804

System: n-propanol + baicalein; phases: Liquid, Crystal
Fixed: Pressure, kPa = 101
Property: Mole fraction of baicalein (Liquid); method: Chromatography
Temperature, K	Mole fraction of baicalein	uncertainty
287	.0009115	.000009115
289	.0009559	.000009559
293	.0009957	.000009957
297	.001071	.00001071
301	.0011421	.000011421
305	.0012285	.000012285
309	.0012936	.000012936
313	.0014245	.000014245
318	.0015563	.000015563
323	.0016361	.000016361

System: propan-2-ol + baicalein; phases: Liquid, Crystal
Fixed: Pressure, kPa = 101
Property: Mole fraction of baicalein (Liquid); method: Chromatography
Temperature, K	Mole fraction of baicalein	uncertainty
287	.0007638	.000007638
289	.0007725	.000007725
293	.0007919	.000007919
297	.0008119	.000008119
301	.0008355	.000008355
305	.0008739	.000008739
309	.0009209	.000009209
313	.0009582	.000009582
318	.0010069	.000010069
323	.001058	.00001058

System: n-butanol + baicalein; phases: Liquid, Crystal
Fixed: Pressure, kPa = 101
Property: Mole fraction of baicalein (Liquid); method: Chromatography
Temperature, K	Mole fraction of baicalein	uncertainty
287	.0012168	.000012168
289	.0012304	.000012304
293	.0012954	.000012954
297	.0013472	.000013472
301	.0014449	.000014449
305	.0015124	.000015124
309	.0015994	.000015994
313	.0016904	.000016904
318	.0017989	.000017989
323	.0019538	.000019538

System: isobutanol + baicalein; phases: Liquid, Crystal
Fixed: Pressure, kPa = 101
Property: Mole fraction of baicalein (Liquid); method: Chromatography
Temperature, K	Mole fraction of baicalein	uncertainty
287	.0010456	.000010456
289	.0010818	.000010818
293	.0011427	.000011427
297	.0011838	.000011838
301	.0012621	.000012621
305	.0013383	.000013383
309	.0014202	.000014202
313	.0015404	.000015404
318	.0016568	.000016568
323	.0018069	.000018069

System: baicalein + 1,3-propanediol; phases: Liquid, Crystal
Fixed: Pressure, kPa = 101
Property: Mole fraction of baicalein (Liquid); method: Chromatography
Temperature, K	Mole fraction of baicalein	uncertainty
287	.0012344	.000012344
289	.0012449	.000012449
293	.0012593	.000012593
297	.001274	.00001274
301	.0012959	.000012959
305	.001324	.00001324
309	.0013522	.000013522
313	.001376	.00001376
318	.0014036	.000014036
323	.0014596	.000014596

System: ethyl acetate + baicalein; phases: Liquid, Crystal
Fixed: Pressure, kPa = 101
Property: Mole fraction of baicalein (Liquid); method: Chromatography
Temperature, K	Mole fraction of baicalein	uncertainty
287	.0014262	.000014262
289	.001479	.00001479
293	.0015744	.000015744
297	.0016889	.000016889
301	.0018031	.000018031
305	.0019194	.000019194
309	.0020033	.000020033
313	.0021256	.000021256
318	.0022995	.000022995
323	.0025334	.000025334
