Measured thermophysical data. High-Pressure Viscosity Measurements of 1,1,1,2-Tetrafluoroethane
Source: Int. J. Thermophys., 2011, 10.1007/s10765-011-0978-y
Compound 1: ethane, 1,1,1,2-tetrafluoro-, C2H2F4

System: ethane, 1,1,1,2-tetrafluoro-; phases: Fluid (supercritical or subcritical phases)
Property: Viscosity, Pa*s (Fluid (supercritical or subcritical phases)); method: Falling or rolling sphere viscometry
Temperature, K	Pressure, kPa	Viscosity, Pa*s	uncertainty
293.15	10000	.000255	.00000765
293.15	25000	.0003008	.000009024
293.15	50000	.0003631	.000010893
293.15	100000	.0005045	.000015135
293.15	150000	.0006605	.000019815
293.15	200000	.0008252	.000024756
298.15	10000	.0002368	.000007104
298.15	25000	.0002795	.000008385
298.15	50000	.0003435	.000010305
298.15	100000	.0004988	.000014964
298.15	150000	.0006459	.000019377
298.15	200000	.000819	.00002457
298.15	250000	.0009773	.000029319
313.15	10000	.000207	.00000621
313.15	25000	.0002461	.000007383
313.15	50000	.0003127	.000009381
313.15	100000	.0004302	.000012906
313.15	150000	.0005758	.000017274
313.15	200000	.0007155	.000021465
313.15	250000	.0008952	.000026856
313.15	300000	.001069	.00003207
313.15	350000	.00125	.0000375
313.15	400000	.001446	.00004338
323.15	10000	.0001805	.000005415
323.15	25000	.0002229	.000006687
323.15	50000	.0002852	.000008556
323.15	100000	.0003946	.000011838
323.15	150000	.000502	.00001506
323.15	200000	.0006252	.000018756
323.15	250000	.0007651	.000022953
323.15	300000	.000914	.00002742
348.15	10000	.0001405	.000004215
348.15	25000	.0001783	.000005349
348.15	50000	.0002343	.000007029
348.15	100000	.0003327	.000009981
348.15	150000	.00043	.0000129
348.15	200000	.0005368	.000016104
348.15	250000	.0006421	.000019263
348.15	300000	.0007647	.000022941
348.15	350000	.0008894	.000026682
348.15	400000	.00104	.0000312
373.15	25000	.0001531	.000004593
373.15	50000	.0002038	.000006114
373.15	100000	.0002931	.000008793
373.15	150000	.0003764	.000011292
373.15	200000	.0004649	.000013947
373.15	250000	.0005564	.000016692
373.15	300000	.0006468	.000019404
373.15	350000	.0007557	.000022671
373.15	400000	.0008715	.000026145
398.15	50000	.0001725	.000005175
398.15	100000	.0002544	.000007632
398.15	150000	.0003243	.000009729
438.15	50000	.0001458	.000004374
438.15	100000	.0002131	.000006393
438.15	150000	.0002789	.000008367
438.15	200000	.0003408	.000010224
438.15	250000	.0003977	.000011931
438.15	300000	.0004612	.000013836
