Measured thermophysical data. Physicochemical Behavior of Some Amino Acids/Glycylglycine in Aqueous D-Galactose Solutions at Different Temperatures
Source: Int. J. Thermophys., 2010, 10.1007/s10765-010-0742-8
Compound 1: glycine, C2H5NO2, purity 99%
Compound 2: L-alanine, C3H7NO2, purity 99%
Compound 3: phenylalanine, C9H11NO2, purity 99%
Compound 4: glycylglycine, C4H8N2O3, purity 99%
Compound 5: D-(+)-galactose, C6H12O6, purity 99%
Compound 6: water, H2O, purity 99.9%

System: glycine + D-(+)-galactose + water; phases: Liquid
Fixed: Pressure, kPa = 101
Fixed: Solvent: Molality, mol/kg of D-(+)-galactose = .1
Property: Mass density, kg/m3 (Liquid); method: Pycnometric method
Temperature, K	Molality, mol/kg of glycine	Mass density, kg/m3	uncertainty
298.15	0	1003.9	
298.15	.01	1004.2	
298.15	.05	1005.5	
298.15	.1	1007.4	
298.15	.15	1009.4	
298.15	.2	1011.6	
303.15	0	1002.3	
303.15	.01	1002.6	
303.15	.05	1003.8	
303.15	.1	1005.5	
303.15	.15	1007.4	
303.15	.2	1009.4	
308.15	0	1001	
308.15	.01	1001.2	
308.15	.05	1002.3	
308.15	.1	1003.9	
308.15	.15	1005.7	
308.15	.2	1007.5	
313.15	0	999.5	
313.15	.01	999.7	
313.15	.05	1000.7	
313.15	.1	1002.1	
313.15	.15	1003.8	
313.15	.2	1005.5	

System: glycine + D-(+)-galactose + water; phases: Liquid
Fixed: Pressure, kPa = 101
Fixed: Solvent: Molality, mol/kg of D-(+)-galactose = .1
Property: Viscosity, Pa*s (Liquid); method: Capillary tube (Ostwald; Ubbelohde) method
Temperature, K	Molality, mol/kg of glycine	Viscosity, Pa*s	uncertainty
298.15	0	.0009284	
298.15	.01	.0009324	
298.15	.05	.0009391	
298.15	.1	.0009456	
298.15	.15	.0009515	
298.15	.2	.0009567	
303.15	0	.0008345	
303.15	.01	.0008371	
303.15	.05	.0008422	
303.15	.1	.0008474	
303.15	.15	.0008522	
303.15	.2	.0008564	
308.15	0	.0007518	
308.15	.01	.0007533	
308.15	.05	.000757	
308.15	.1	.0007612	
308.15	.15	.0007651	
308.15	.2	.0007689	
313.15	0	.0006858	
313.15	.01	.0006865	
313.15	.05	.0006891	
313.15	.1	.0006924	
313.15	.15	.0006958	
313.15	.2	.0006987	

System: glycine + D-(+)-galactose + water; phases: Liquid
Fixed: Pressure, kPa = 101
Fixed: Solvent: Molality, mol/kg of D-(+)-galactose = .1
Property: Refractive index (Na D-line) (Liquid); method: Standard Abbe refractometry
Temperature, K	Molality, mol/kg of glycine	Refractive index (Na D-line)	uncertainty
298.15	0	1.3345	
298.15	.01	1.3347	
298.15	.05	1.3353	
298.15	.1	1.3362	
298.15	.15	1.3372	
298.15	.2	1.3382	
303.15	0	1.334	
303.15	.01	1.3341	
303.15	.05	1.3347	
303.15	.1	1.3356	
303.15	.15	1.3366	
303.15	.2	1.3375	
308.15	0	1.3335	
308.15	.01	1.3337	
308.15	.05	1.3343	
308.15	.1	1.3351	
308.15	.15	1.3361	
308.15	.2	1.337	
313.15	0	1.3329	
313.15	.01	1.3332	
313.15	.05	1.3337	
313.15	.1	1.3345	
313.15	.15	1.3355	
313.15	.2	1.3363	

System: L-alanine + D-(+)-galactose + water; phases: Liquid
Fixed: Pressure, kPa = 101
Fixed: Solvent: Molality, mol/kg of D-(+)-galactose = .1
Property: Mass density, kg/m3 (Liquid); method: Pycnometric method
Temperature, K	Molality, mol/kg of L-alanine	Mass density, kg/m3	uncertainty
298.15	0	1003.9	
298.15	.01	1004.5	
298.15	.05	1005.7	
298.15	.1	1007	
298.15	.15	1008.2	
298.15	.2	1009.4	
303.15	0	1002.3	
303.15	.01	1002.8	
303.15	.05	1003.9	
303.15	.1	1005.2	
303.15	.15	1006.3	
303.15	.2	1007.5	
308.15	0	1001	
308.15	.01	1001.4	
308.15	.05	1002.4	
308.15	.1	1003.6	
308.15	.15	1004.7	
308.15	.2	1005.8	
313.15	0	999.5	
313.15	.01	999.8	
313.15	.05	1000.7	
313.15	.1	1001.8	
313.15	.15	1002.9	
313.15	.2	1004	

System: L-alanine + D-(+)-galactose + water; phases: Liquid
Fixed: Pressure, kPa = 101
Fixed: Solvent: Molality, mol/kg of D-(+)-galactose = .1
Property: Viscosity, Pa*s (Liquid); method: Capillary tube (Ostwald; Ubbelohde) method
Temperature, K	Molality, mol/kg of L-alanine	Viscosity, Pa*s	uncertainty
298.15	0	.0009284	
298.15	.01	.0009323	
298.15	.05	.0009435	
298.15	.1	.0009561	
298.15	.15	.0009686	
298.15	.2	.000981	
303.15	0	.0008345	
303.15	.01	.0008373	
303.15	.05	.0008468	
303.15	.1	.000858	
303.15	.15	.000869	
303.15	.2	.0008797	
308.15	0	.0007518	
308.15	.01	.0007536	
308.15	.05	.0007614	
308.15	.1	.0007714	
308.15	.15	.0007814	
308.15	.2	.0007909	
313.15	0	.0006858	
313.15	.01	.0006866	
313.15	.05	.0006926	
313.15	.1	.000701	
313.15	.15	.00071	
313.15	.2	.0007188	

System: L-alanine + D-(+)-galactose + water; phases: Liquid
Fixed: Pressure, kPa = 101
Fixed: Solvent: Molality, mol/kg of D-(+)-galactose = .1
Property: Refractive index (Na D-line) (Liquid); method: Standard Abbe refractometry
Temperature, K	Molality, mol/kg of L-alanine	Refractive index (Na D-line)	uncertainty
298.15	0	1.3345	
298.15	.01	1.3347	
298.15	.05	1.3354	
298.15	.1	1.3363	
298.15	.15	1.3372	
298.15	.2	1.3382	
303.15	0	1.334	
303.15	.01	1.3341	
303.15	.05	1.3348	
303.15	.1	1.3357	
303.15	.15	1.3366	
303.15	.2	1.3376	
308.15	0	1.3335	
308.15	.01	1.3337	
308.15	.05	1.3343	
308.15	.1	1.3352	
308.15	.15	1.3361	
308.15	.2	1.337	
313.15	0	1.3329	
313.15	.01	1.3332	
313.15	.05	1.3338	
313.15	.1	1.3347	
313.15	.15	1.3356	
313.15	.2	1.3365	

System: D-(+)-galactose + phenylalanine + water; phases: Liquid
Fixed: Pressure, kPa = 101
Fixed: Solvent: Molality, mol/kg of D-(+)-galactose = .1
Property: Mass density, kg/m3 (Liquid); method: Pycnometric method
Temperature, K	Molality, mol/kg of phenylalanine	Mass density, kg/m3	uncertainty
298.15	0	1003.9	
298.15	.01	1004.4	
298.15	.04	1005.9	
298.15	.08	1008.2	
298.15	.12	1010.9	
303.15	0	1002.4	
303.15	.01	1002.7	
303.15	.04	1004.1	
303.15	.08	1006.2	
303.15	.12	1008.7	
308.15	0	1001	
308.15	.01	1001.3	
308.15	.04	1002.5	
308.15	.08	1004.3	
308.15	.12	1006.5	
313.15	0	999.5	
313.15	.01	999.8	
313.15	.04	1000.8	
313.15	.08	1002.4	
313.15	.12	1004.3	

System: D-(+)-galactose + phenylalanine + water; phases: Liquid
Fixed: Pressure, kPa = 101
Fixed: Solvent: Molality, mol/kg of D-(+)-galactose = .1
Property: Viscosity, Pa*s (Liquid); method: Capillary tube (Ostwald; Ubbelohde) method
Temperature, K	Molality, mol/kg of phenylalanine	Viscosity, Pa*s	uncertainty
298.15	0	.0009284	
298.15	.01	.0009406	
298.15	.04	.0009642	
298.15	.08	.0009919	
298.15	.12	.0010198	
303.15	0	.0008345	
303.15	.01	.0008427	
303.15	.04	.0008614	
303.15	.08	.0008849	
303.15	.12	.0009084	
308.15	0	.0007518	
308.15	.01	.0007569	
308.15	.04	.0007713	
308.15	.08	.0007903	
308.15	.12	.0008106	
313.15	0	.0006858	
313.15	.01	.0006883	
313.15	.04	.000699	
313.15	.08	.0007149	
313.15	.12	.0007323	

System: D-(+)-galactose + phenylalanine + water; phases: Liquid
Fixed: Pressure, kPa = 101
Fixed: Solvent: Molality, mol/kg of D-(+)-galactose = .1
Property: Refractive index (Na D-line) (Liquid); method: Standard Abbe refractometry
Temperature, K	Molality, mol/kg of phenylalanine	Refractive index (Na D-line)	uncertainty
298.15	0	1.3345	
298.15	.01	1.3347	
298.15	.04	1.3355	
298.15	.08	1.3367	
298.15	.12	1.338	
303.15	0	1.334	
303.15	.01	1.3342	
303.15	.04	1.3349	
303.15	.08	1.3361	
303.15	.12	1.3373	
308.15	0	1.3335	
308.15	.01	1.3338	
308.15	.04	1.3344	
308.15	.08	1.3355	
308.15	.12	1.3367	
313.15	0	1.3329	
313.15	.01	1.3332	
313.15	.04	1.3338	
313.15	.08	1.3349	
313.15	.12	1.336	

System: D-(+)-galactose + glycylglycine + water; phases: Liquid
Fixed: Pressure, kPa = 101
Fixed: Solvent: Molality, mol/kg of D-(+)-galactose = .1
Property: Mass density, kg/m3 (Liquid); method: Pycnometric method
Temperature, K	Molality, mol/kg of glycylglycine	Mass density, kg/m3	uncertainty
298.15	0	1003.9	
298.15	.01	1004.4	
298.15	.05	1006.7	
298.15	.1	1010.1	
298.15	.15	1013.8	
298.15	.2	1017.9	
303.15	0	1002.4	
303.15	.01	1002.8	
303.15	.05	1005	
303.15	.1	1008.2	
303.15	.15	1011.7	
303.15	.2	1015.6	
308.15	0	1001	
308.15	.01	1001.4	
308.15	.05	1003.3	
308.15	.1	1006.3	
308.15	.15	1009.6	
308.15	.2	1013.2	
313.15	0	999.5	
313.15	.01	999.9	
313.15	.05	1001.6	
313.15	.1	1004.3	
313.15	.15	1007.3	
313.15	.2	1010.8	

System: D-(+)-galactose + glycylglycine + water; phases: Liquid
Fixed: Pressure, kPa = 101
Fixed: Solvent: Molality, mol/kg of D-(+)-galactose = .1
Property: Viscosity, Pa*s (Liquid); method: Capillary tube (Ostwald; Ubbelohde) method
Temperature, K	Molality, mol/kg of glycylglycine	Viscosity, Pa*s	uncertainty
298.15	0	.0009284	
298.15	.01	.0009324	
298.15	.05	.0009446	
298.15	.1	.0009587	
298.15	.15	.0009731	
303.15	0	.0008345	
303.15	.01	.0008371	
303.15	.05	.0008465	
303.15	.1	.0008589	
303.15	.15	.0008711	
308.15	0	.0007518	
308.15	.01	.0007532	
308.15	.05	.0007606	
308.15	.1	.0007707	
308.15	.15	.0007815	
313.15	0	.0006858	
313.15	.01	.0006865	
313.15	.05	.0006921	
313.15	.1	.0007006	
313.15	.15	.00071	
298.15	.2	.0009875	
303.15	.2	.0008838	
308.15	.2	.0007926	
313.15	.2	.0007205	

System: D-(+)-galactose + glycylglycine + water; phases: Liquid
Fixed: Pressure, kPa = 101
Fixed: Solvent: Molality, mol/kg of D-(+)-galactose = .1
Property: Refractive index (Na D-line) (Liquid); method: Standard Abbe refractometry
Temperature, K	Molality, mol/kg of glycylglycine	Refractive index (Na D-line)	uncertainty
298.15	0	1.3345	
298.15	.01	1.3347	
298.15	.05	1.3356	
298.15	.1	1.3368	
298.15	.15	1.3382	
298.15	.2	1.3397	
303.15	0	1.3339	
303.15	.01	1.3341	
303.15	.05	1.335	
303.15	.1	1.3361	
303.15	.15	1.3375	
303.15	.2	1.3389	
308.15	0	1.3335	
308.15	.01	1.3336	
308.15	.05	1.3344	
308.15	.1	1.3355	
308.15	.15	1.3367	
308.15	.2	1.3381	
313.15	0	1.3329	
313.15	.01	1.3331	
313.15	.05	1.3338	
313.15	.1	1.3348	
313.15	.15	1.336	
313.15	.2	1.3373	

System: D-(+)-galactose + water; phases: Liquid
Property: Mass density, kg/m3 (Liquid); method: Pycnometric method
Temperature, K	Pressure, kPa	Molality, mol/kg of D-(+)-galactose	Mass density, kg/m3	uncertainty
298.15	101	.1	1003.9	
303.15	101	.1	1002.3	
308.15	101	.1	1001	
313.15	101	.1	999.5	
303.15	101	.1	1002.4	

System: D-(+)-galactose + water; phases: Liquid
Property: Viscosity, Pa*s (Liquid); method: Capillary tube (Ostwald; Ubbelohde) method
Temperature, K	Pressure, kPa	Molality, mol/kg of D-(+)-galactose	Viscosity, Pa*s	uncertainty
298.15	101	.1	.0009284	
303.15	101	.1	.0008345	
308.15	101	.1	.0007518	
313.15	101	.1	.0006858	

System: D-(+)-galactose + water; phases: Liquid
Property: Refractive index (Na D-line) (Liquid); method: Standard Abbe refractometry
Temperature, K	Pressure, kPa	Molality, mol/kg of D-(+)-galactose	Refractive index (Na D-line)	uncertainty
298.15	101	.1	1.3345	
303.15	101	.1	1.334	
308.15	101	.1	1.3335	
313.15	101	.1	1.3329	
303.15	101	.1	1.3339	
