Measured thermophysical data. Vapor Liquid Equilibrium for Binary Mixtures  of 1,4-Diazabicyclo[2.2.2]octane with Ethylenediamine,  Ethanolamine, and Ethylene Glycol
Source: Int. J. Thermophys., 2009, 10.1007/s10765-009-0570-x
Compound 1: triethylenediamine, C6H12N2
Compound 2: 1,2-ethanediamine, C2H8N2
Compound 3: 2-aminoethanol, C2H7NO
Compound 4: 1,2-ethanediol, C2H6O2

System: 1,2-ethanediamine + triethylenediamine; phases: Liquid, Gas
Fixed: Pressure, kPa = 99.6
Property: Boiling temperature at pressure P, K (Liquid); method: Ebulliometric method (Recirculating still)
Mole fraction of 1,2-ethanediamine	Boiling temperature at pressure P, K	uncertainty
.505	425.65	
.614	415.75	
.677	412.25	
.706	409.05	
.759	407.35	
.8	405.45	
.825	403.25	
.846	401.65	
.843	400.65	
.876	399.85	
.902	398.75	
.914	398.25	
.927	397.65	
.934	397.15	
.94	396.65	
.958	396.05	
.967	395.55	
.974	395.25	
.982	394.85	
.987	394.45	
.991	394.15	

System: 1,2-ethanediamine + triethylenediamine; phases: Liquid, Gas
Fixed: Pressure, kPa = 99.6
Property: Mole fraction of 1,2-ethanediamine (Liquid); method: Chromatography
Mole fraction of 1,2-ethanediamine	Mole fraction of 1,2-ethanediamine	uncertainty
.505	.122	.02
.614	.215	.02
.677	.278	.02
.706	.332	.02
.759	.357	.02
.8	.447	.02
.825	.49	.02
.846	.511	.02
.843	.568	.02
.876	.595	.02
.902	.646	.02
.914	.676	.02
.927	.693	.02
.934	.735	.02
.94	.76	.02
.958	.797	.02
.967	.821	.02
.974	.848	.02
.982	.868	.02
.987	.884	.02
.991	.902	.02

System: 2-aminoethanol + triethylenediamine; phases: Liquid, Gas
Fixed: Pressure, kPa = 98.9
Property: Boiling temperature at pressure P, K (Liquid); method: Ebulliometric method (Recirculating still)
Mole fraction of 2-aminoethanol	Boiling temperature at pressure P, K	uncertainty
.207	442.65	
.288	440.75	
.338	439.65	
.369	439.05	
.472	438.95	
.55	439.05	
.616	439.65	
.669	439.75	
.719	440.35	
.764	440.65	
.791	440.85	

System: 2-aminoethanol + triethylenediamine; phases: Liquid, Gas
Fixed: Pressure, kPa = 98.9
Property: Mole fraction of 2-aminoethanol (Liquid); method: Chromatography
Mole fraction of 2-aminoethanol	Mole fraction of 2-aminoethanol	uncertainty
.207	.134	.02
.288	.213	.02
.338	.286	.02
.369	.352	.02
.472	.482	.02
.55	.569	.02
.616	.655	.02
.669	.703	.02
.719	.751	.02
.764	.796	.02
.791	.817	.02

System: 1,2-ethanediol + triethylenediamine; phases: Liquid, Gas
Fixed: Pressure, kPa = 98.9
Property: Boiling temperature at pressure P, K (Liquid); method: Ebulliometric method (Recirculating still)
Mole fraction of 1,2-ethanediol	Boiling temperature at pressure P, K	uncertainty
.042	451.75	
.07	453.15	
.127	456.25	
.178	457.25	
.154	459.75	
.25	463.25	
.349	465.25	
.434	466.75	
.531	468.25	
.611	469.25	
.624	469.75	
.64	469.75	
.71	470.25	
.748	470.25	
.787	469.25	
.799	470.25	
.82	470.25	
.847	470.25	
.871	470.25	
.9	470.75	
.912	470.75	
.938	470.25	
.953	469.75	
.961	469.75	

System: 1,2-ethanediol + triethylenediamine; phases: Liquid, Gas
Fixed: Pressure, kPa = 98.9
Property: Mole fraction of 1,2-ethanediol (Liquid); method: Chromatography
Mole fraction of 1,2-ethanediol	Mole fraction of 1,2-ethanediol	uncertainty
.042	.142	.02
.07	.191	.02
.127	.289	.02
.178	.338	.02
.154	.349	.02
.25	.431	.02
.349	.509	.02
.434	.577	.02
.531	.62	.02
.611	.69	.02
.624	.699	.02
.64	.719	.02
.71	.759	.02
.748	.78	.02
.787	.805	.02
.799	.815	.02
.82	.832	.02
.847	.854	.02
.871	.87	.02
.9	.898	.02
.912	.912	.02
.938	.929	.02
.953	.945	.02
.961	.953	.02
