Measured thermophysical data. Thermal Conductivity of Ionic Liquids: Measurement and Prediction
Source: Int. J. Thermophys., 2010, 10.1007/s10765-010-0889-3
Compound 1: [C2mim][NTf2], C8H11F6N3O4S2, purity 99%
Compound 2: 1-ethyl-3-methylimidazolium acetate, C8H14N2O2, purity 98%
Compound 3: 1-ethyl-3-methylimidazolium dicyanamide, C8H11N5, purity 98%
Compound 4: 1-ethyl-3-methylimidazolium tricyanomethide, C10H11N5, purity 98%
Compound 5: 1H-imidazolium, 3-ethyl-1-methyl-, P-methylphosphonate, C7H14N2O3P, purity 98%
Compound 6: 1-ethyl-3-methylimidazolium ethyl sulfate, C8H16N2O4S, purity 99%
Compound 7: 1-ethyl-3-methylimidazolium octyl sulfate, C14H28N2O4S, purity 99%
Compound 8: 1-hexyl-3-methylimidazolium bis[(trifluoromethyl)sulfonyl]imide, C12H19F6N3O4S2, purity 98%
Compound 9: methyltrioctylammonium 1,1,1-trifluoro-N-[(trifluoromethyl)sulfonyl]methanesulfonamide, C27H54F6N2O4S2, purity 98%
Compound 10: 1,3-dibutylimidazolium bis(trifluoromethylsulfonyl)imide, C13H21F6N3O4S2, purity 99%

System: [C2mim][NTf2]; phases: Liquid
Fixed: Pressure, kPa = 101.325
Property: Refractive index (Na D-line) (Liquid); method: Standard Abbe refractometry
Temperature, K	Refractive index (Na D-line)	uncertainty
283.15	1.4355	.0005
293.15	1.4324	.0005
303.15	1.4298	.0005
313.15	1.4271	.0005

System: [C2mim][NTf2]; phases: Liquid
Fixed: Pressure, kPa = 101.325
Property: Thermal conductivity, W/m/K (Liquid); method: Parallel plate method
Temperature, K	Thermal conductivity, W/m/K	uncertainty
273.15	.1208	.003624
283.15	.1206	.003618
293.15	.1202	.003606
303.15	.1215	.003645
313.15	.1195	.003585
323.15	.1184	.003552
333.15	.119	.00357
343.15	.1194	.003582
353.15	.1191	.003573

System: 1-ethyl-3-methylimidazolium acetate; phases: Liquid
Fixed: Pressure, kPa = 101.325
Property: Refractive index (Na D-line) (Liquid); method: Standard Abbe refractometry
Temperature, K	Refractive index (Na D-line)	uncertainty
283.15	1.503	.0005
293.15	1.5002	.0005
303.15	1.4981	.0005
313.15	1.495	.0005

System: 1-ethyl-3-methylimidazolium acetate; phases: Liquid
Fixed: Pressure, kPa = 101.325
Property: Thermal conductivity, W/m/K (Liquid); method: Parallel plate method
Temperature, K	Thermal conductivity, W/m/K	uncertainty
273.15	.2137	.006411
283.15	.2124	.006372
293.15	.211	.00633
303.15	.2102	.006306
313.15	.2066	.006198
323.15	.2026	.006078
333.15	.2002	.006006
343.15	.1973	.005919
353.15	.1915	.005745

System: 1-ethyl-3-methylimidazolium acetate; phases: Liquid
Fixed: Pressure, kPa = 101.325
Property: Mass density, kg/m3 (Liquid); method: Vibrating tube method
Temperature, K	Mass density, kg/m3	uncertainty
273.15	1115.31	
278.15	1112.13	
283.15	1108.96	
288.15	1105.8	
293.15	1102.69	
298.15	1099.68	
303.15	1096.64	
308.15	1093.6	
313.15	1090.57	
323.15	1084.52	
328.15	1081.52	
333.15	1078.52	
338.15	1075.54	
343.15	1072.57	
348.15	1069.6	
353.15	1066.65	
358.15	1063.71	
363.15	1060.78	

System: 1-ethyl-3-methylimidazolium dicyanamide; phases: Liquid
Fixed: Pressure, kPa = 101.325
Property: Thermal conductivity, W/m/K (Liquid); method: Parallel plate method
Temperature, K	Thermal conductivity, W/m/K	uncertainty
273.15	.2053	.006159
283.15	.205	.00615
293.15	.2021	.006063
303.15	.2022	.006066
313.15	.1986	.005958
323.15	.1958	.005874
333.15	.1942	.005826
343.15	.1935	.005805
353.15	.1914	.005742

System: 1-ethyl-3-methylimidazolium tricyanomethide; phases: Liquid
Fixed: Pressure, kPa = 101.325
Property: Refractive index (Na D-line) (Liquid); method: Standard Abbe refractometry
Temperature, K	Refractive index (Na D-line)	uncertainty
283.15	1.5154	.0005
293.15	1.5139	.0005
303.15	1.511	.0005
313.15	1.5084	.0005

System: 1-ethyl-3-methylimidazolium tricyanomethide; phases: Liquid
Fixed: Pressure, kPa = 101.325
Property: Thermal conductivity, W/m/K (Liquid); method: Parallel plate method
Temperature, K	Thermal conductivity, W/m/K	uncertainty
273.15	.1956	.005868
283.15	.1957	.005871
293.15	.193	.00579
303.15	.1918	.005754
313.15	.19	.0057
323.15	.1873	.005619
333.15	.1868	.005604
343.15	.1847	.005541
353.15	.1815	.005445

System: 1-ethyl-3-methylimidazolium tricyanomethide; phases: Liquid
Fixed: Pressure, kPa = 101.325
Property: Mass density, kg/m3 (Liquid); method: Vibrating tube method
Temperature, K	Mass density, kg/m3	uncertainty
273.15	1099.28	
278.15	1095.68	
283.15	1092.07	
288.15	1088.49	
293.15	1084.91	
298.15	1081.37	
303.15	1077.84	
308.15	1074.32	
313.15	1070.82	
318.15	1067.34	
323.15	1063.88	
328.15	1060.43	
333.15	1057	
338.15	1053.58	
343.15	1050.18	
348.15	1046.8	
353.15	1043.42	
358.15	1040.07	
363.15	1036.73	

System: 1H-imidazolium, 3-ethyl-1-methyl-, P-methylphosphonate; phases: Liquid
Fixed: Pressure, kPa = 101.325
Property: Thermal conductivity, W/m/K (Liquid); method: Parallel plate method
Temperature, K	Thermal conductivity, W/m/K	uncertainty
273.15	.1941	.005823
283.15	.1948	.005844
293.15	.1914	.005742
303.15	.1959	.005877
313.15	.1915	.005745
323.15	.1906	.005718
333.15	.1908	.005724
343.15	.1917	.005751
353.15	.1902	.005706

System: 1-ethyl-3-methylimidazolium ethyl sulfate; phases: Liquid
Fixed: Pressure, kPa = 101.325
Property: Thermal conductivity, W/m/K (Liquid); method: Parallel plate method
Temperature, K	Thermal conductivity, W/m/K	uncertainty
273.15	.1876	.005628
283.15	.1882	.005646
293.15	.1856	.005568
303.15	.1872	.005616
313.15	.184	.00552
323.15	.1833	.005499
333.15	.1832	.005496
343.15	.1834	.005502
353.15	.183	.00549

System: 1-ethyl-3-methylimidazolium octyl sulfate; phases: Liquid
Fixed: Pressure, kPa = 101.325
Property: Thermal conductivity, W/m/K (Liquid); method: Parallel plate method
Temperature, K	Thermal conductivity, W/m/K	uncertainty
273.15	.1712	.005136
283.15	.1711	.005133
293.15	.167	.00501
303.15	.1679	.005037
313.15	.1648	.004944
323.15	.1629	.004887
333.15	.1631	.004893
343.15	.1626	.004878
353.15	.1621	.004863

System: 1-hexyl-3-methylimidazolium bis[(trifluoromethyl)sulfonyl]imide; phases: Liquid
Fixed: Pressure, kPa = 101.325
Property: Thermal conductivity, W/m/K (Liquid); method: Parallel plate method
Temperature, K	Thermal conductivity, W/m/K	uncertainty
273.15	.1238	.003714
283.15	.1224	.003672
293.15	.1219	.003657
303.15	.1237	.003711
313.15	.122	.00366
323.15	.1201	.003603
333.15	.1208	.003624
343.15	.1212	.003636
353.15	.1209	.003627

System: 1-hexyl-3-methylimidazolium bis[(trifluoromethyl)sulfonyl]imide; phases: Liquid
Fixed: Pressure, kPa = 101.325
Property: Mass density, kg/m3 (Liquid); method: Vibrating tube method
Temperature, K	Mass density, kg/m3	uncertainty
273.15	1387.84	
278.15	1383.06	
283.15	1378.45	
288.15	1373.85	
293.15	1369.27	
298.15	1364.69	
303.15	1360.12	
308.15	1355.56	
313.15	1351.01	
323.15	1341.94	
328.15	1337.43	
333.15	1332.93	
338.15	1328.45	
343.15	1323.97	
348.15	1319.52	
353.15	1315.07	
358.15	1310.64	
363.15	1306.22	

System: methyltrioctylammonium 1,1,1-trifluoro-N-[(trifluoromethyl)sulfonyl]methanesulfonamide; phases: Liquid
Fixed: Pressure, kPa = 101.325
Property: Thermal conductivity, W/m/K (Liquid); method: Parallel plate method
Temperature, K	Thermal conductivity, W/m/K	uncertainty
273.15	.1314	.003942
283.15	.1291	.003873
293.15	.1299	.003897
303.15	.1283	.003849
313.15	.1266	.003798
323.15	.1247	.003741
333.15	.1244	.003732
343.15	.1242	.003726
353.15	.1248	.003744

System: 1,3-dibutylimidazolium bis(trifluoromethylsulfonyl)imide; phases: Liquid
Fixed: Pressure, kPa = 101.325
Property: Thermal conductivity, W/m/K (Liquid); method: Parallel plate method
Temperature, K	Thermal conductivity, W/m/K	uncertainty
273.15	.1209	.003627
283.15	.1203	.003609
293.15	.1188	.003564
303.15	.1198	.003594
313.15	.1176	.003528
323.15	.117	.00351
333.15	.1176	.003528
343.15	.1171	.003513
353.15	.1164	.003492
