Measured thermophysical data. Partial Molar Volumes and Viscosity B-Coefficients  of Nicotinamide in Aqueous Resorcinol Solutions  at T=(298.15, 308.15, and 318.15)K
Source: Int. J. Thermophys., 2009, 10.1007/s10765-009-0567-5
Compound 1: 1,3-benzenediol, C6H6O2
Compound 2: nicotinamide, C6H6N2O, purity 98%
Compound 3: water, H2O

System: 1,3-benzenediol + water; phases: Liquid
Fixed: Pressure, kPa = 101
Property: Mass density, kg/m3 (Liquid); method: Pycnometric method
Amount concentration (molarity), mol/dm3 of 1,3-benzenediol	Temperature, K	Mass density, kg/m3	uncertainty
.05	298.15	999.2	.2
.05	308.15	998.5	.2
.05	318.15	997.5	.2
.1	298.15	1000.5	.2
.1	308.15	1000.3	.2
.1	318.15	998.6	.2
.15	298.15	1001.7	.2
.15	308.15	1001.5	.2
.15	318.15	1000.4	.2
.2	298.15	1003.2	.2
.2	308.15	1002.7	.2
.2	318.15	1001	.2

System: 1,3-benzenediol + water; phases: Liquid
Fixed: Pressure, kPa = 101
Property: Viscosity, Pa*s (Liquid); method: Capillary tube (Ostwald; Ubbelohde) method
Amount concentration (molarity), mol/dm3 of 1,3-benzenediol	Temperature, K	Viscosity, Pa*s	uncertainty
.05	298.15	.0009	.000002
.05	308.15	.00074	.000002
.05	318.15	.000621	.000002
.1	298.15	.00095	.000002
.1	308.15	.000801	.000002
.1	318.15	.000697	.000002
.15	298.15	.001001	.000002
.15	308.15	.000862	.000002
.15	318.15	.00075	.000002
.2	298.15	.001051	.000002
.2	308.15	.000901	.000002
.2	318.15	.000801	.000002

System: nicotinamide + 1,3-benzenediol + water; phases: Liquid
Fixed: Pressure, kPa = 101
Property: Mass density, kg/m3 (Liquid); method: Pycnometric method
Temperature, K	Solvent: Amount concentration (molarity), mol/dm3 of 1,3-benzenediol	Amount concentration (molarity), mol/dm3 of nicotinamide	Mass density, kg/m3	uncertainty
298.15	.05	.0252	1001.9	.2
298.15	.05	.0453	1004.1	.2
298.15	.05	.0654	1005.7	.2
298.15	.05	.0755	1006.1	.2
298.15	.05	.0855	1006.2	.2
298.15	.05	.0956	1006.3	.2
298.15	.1	.025	1003	.2
298.15	.1	.045	1005	.2
298.15	.1	.065	1006.5	.2
298.15	.1	.075	1006.8	.2
298.15	.1	.085	1006.9	.2
298.15	.1	.095	1007	.2
298.15	.15	.0251	1004.1	.2
298.15	.15	.0452	1006	.2
298.15	.15	.0652	1007.5	.2
298.15	.15	.0753	1007.7	.2
298.15	.15	.0853	1007.9	.2
298.15	.15	.0953	1008	.2
298.15	.2	.025	1005.2	.2
298.15	.2	.0451	1006.8	.2
298.15	.2	.065	1008.3	.2
298.15	.2	.0751	1008.7	.2
298.15	.2	.085	1008.9	.2
298.15	.2	.0951	1009.1	.2
308.15	.1	.0249	1002.3	.2
308.15	.1	.0449	1003.9	.2
308.15	.1	.065	1005.4	.2
308.15	.1	.0749	1005.8	.2
308.15	.1	.0849	1005.9	.2
308.15	.1	.095	1006.1	.2
308.15	.15	.0249	1003.4	.2
308.15	.15	.0449	1004.9	.2
308.15	.15	.065	1006.2	.2
308.15	.15	.075	1006.3	.2
308.15	.15	.0849	1006.5	.2
308.15	.15	.0949	1006.6	.2
308.15	.05	.025	1000.9	.2
308.15	.05	.045	1002.7	.2
308.15	.05	.0649	1004.2	.2
308.15	.05	.0749	1004.5	.2
308.15	.05	.085	1004.6	.2
308.15	.05	.0949	1004.7	.2
308.15	.2	.0249	1004.1	.2
308.15	.2	.0449	1005.3	.2
308.15	.2	.065	1006.4	.2
308.15	.2	.0749	1006.7	.2
308.15	.2	.085	1006.8	.2
308.15	.2	.095	1006.9	.2
318.15	.15	.025	1001.7	.2
318.15	.15	.0449	1003.1	.2
318.15	.15	.0649	1003.6	.2
318.15	.15	.075	1003.7	.2
318.15	.15	.0849	1003.8	.2
318.15	.15	.0949	1003.9	.2
318.15	.05	.025	999.8	.2
318.15	.05	.045	1001.6	.2
318.15	.05	.0649	1003.2	.2
318.15	.05	.0749	1003.5	.2
318.15	.05	.085	1003.7	.2
318.15	.05	.095	1003.8	.2
318.15	.1	.025	1000.3	.2
318.15	.1	.0449	1001.7	.2
318.15	.1	.065	1003.1	.2
318.15	.1	.0749	1003.3	.2
318.15	.1	.085	1003.4	.2
318.15	.1	.0949	1003.5	.2
318.15	.2	.0249	1002.1	.2
318.15	.2	.045	1003	.2
318.15	.2	.0649	1003.9	.2
318.15	.2	.075	1004	.2
318.15	.2	.0849	1004.1	.2
318.15	.2	.0949	1004.2	.2

System: nicotinamide + 1,3-benzenediol + water; phases: Liquid
Fixed: Pressure, kPa = 101
Property: Viscosity, Pa*s (Liquid); method: Capillary tube (Ostwald; Ubbelohde) method
Temperature, K	Solvent: Amount concentration (molarity), mol/dm3 of 1,3-benzenediol	Amount concentration (molarity), mol/dm3 of nicotinamide	Viscosity, Pa*s	uncertainty
298.15	.05	.0252	.0009081	.000002
298.15	.05	.0453	.0009122	.000002
298.15	.05	.0654	.0009165	.000002
298.15	.05	.0755	.0009185	.000002
298.15	.05	.0855	.00092	.000002
298.15	.05	.0956	.0009219	.000002
308.15	.05	.025	.0007453	.000002
308.15	.05	.045	.0007496	.000002
308.15	.05	.0649	.0007541	.000002
308.15	.05	.0749	.0007569	.000002
308.15	.05	.085	.0007595	.000002
308.15	.05	.0949	.0007619	.000002
318.15	.05	.025	.0006225	.000002
318.15	.05	.045	.0006259	.000002
318.15	.05	.0649	.0006298	.000002
318.15	.05	.0749	.0006319	.000002
318.15	.05	.085	.0006336	.000002
318.15	.05	.095	.000636	.000002
298.15	.1	.025	.0009563	.000002
298.15	.1	.045	.0009604	.000002
298.15	.1	.065	.0009644	.000002
298.15	.1	.075	.0009661	.000002
298.15	.1	.085	.0009681	.000002
298.15	.1	.095	.0009699	.000002
308.15	.1	.0249	.0008042	.000002
308.15	.1	.0449	.0008083	.000002
308.15	.1	.065	.0008127	.000002
308.15	.1	.0749	.0008151	.000002
308.15	.1	.0849	.0008175	.000002
308.15	.1	.095	.0008199	.000002
318.15	.1	.025	.0006991	.000002
318.15	.1	.0449	.0007035	.000002
318.15	.1	.065	.000709	.000002
318.15	.1	.0749	.0007115	.000002
318.15	.1	.085	.0007144	.000002
318.15	.1	.0949	.0007172	.000002
298.15	.15	.0251	.0010078	.000002
298.15	.15	.0452	.0010126	.000002
298.15	.15	.0652	.0010174	.000002
298.15	.15	.0753	.0010199	.000002
298.15	.15	.0853	.0010226	.000002
298.15	.15	.0953	.0010251	.000002
308.15	.15	.0249	.0008653	.000002
308.15	.15	.0449	.0008701	.000002
308.15	.15	.065	.0008755	.000002
308.15	.15	.075	.0008783	.000002
308.15	.15	.0849	.0008811	.000002
308.15	.15	.0949	.000884	.000002
318.15	.15	.025	.0007517	.000002
318.15	.15	.0449	.0007568	.000002
318.15	.15	.0649	.0007628	.000002
318.15	.15	.075	.0007657	.000002
318.15	.15	.0849	.0007685	.000002
318.15	.15	.0949	.000772	.000002
298.15	.2	.025	.0010577	.000002
298.15	.2	.0451	.0010629	.000002
298.15	.2	.065	.0010682	.000002
298.15	.2	.0751	.0010711	.000002
298.15	.2	.085	.001074	.000002
298.15	.2	.0951	.0010769	.000002
308.15	.2	.0249	.0009048	.000002
308.15	.2	.0449	.0009099	.000002
308.15	.2	.065	.0009159	.000002
308.15	.2	.0749	.0009192	.000002
308.15	.2	.085	.0009218	.000002
308.15	.2	.095	.0009251	.000002
318.15	.2	.0249	.0008031	.000002
318.15	.2	.045	.0008084	.000002
318.15	.2	.0649	.000815	.000002
318.15	.2	.075	.0008186	.000002
318.15	.2	.0849	.0008217	.000002
318.15	.2	.0249	.0008252	.000002
