Measured thermophysical data. Synthesis of 1,3-Dimethylimidazolium Chloride and Volumetric Property Investigations of Its Aqueous Solution
Source: Int. J. Thermophys., 2009, 10.1007/s10765-009-0651-x
Compound 1: 1,3-dimethylimidazolium chloride, C5H9ClN2
Compound 2: water, H2O
Compound 3: acetonitrile, C2H3N

System: 1,3-dimethylimidazolium chloride; phases: Crystal, Liquid, Air at 1 atmosphere
Property: Normal melting temperature, K (Crystal); method: Visual observation
Normal melting temperature, K	uncertainty
399.15	2

System: acetonitrile; phases: Liquid
Fixed: Pressure, kPa = 101.325
Property: Mass density, kg/m3 (Liquid); method: Vibrating tube method
Temperature, K	Mass density, kg/m3	uncertainty
308.15	765.98	

System: water + 1,3-dimethylimidazolium chloride; phases: Liquid
Fixed: Pressure, kPa = 101
Property: Mass density, kg/m3 (Liquid); method: Vibrating tube method
Temperature, K	Mass fraction of water	Mass density, kg/m3	uncertainty
293.15	.20045	1157.78	.01
293.15	.30148	1135.29	.01
293.15	.40195	1111.77	.01
293.15	.50008	1089.04	.01
293.15	.59922	1067.56	.01
293.15	.70034	1047.52	.01
293.15	.8003	1030.53	.01
293.15	.898	1014.07	.01
298.15	.20045	1154.79	.01
298.15	.30148	1132.4	.01
298.15	.40195	1109.03	.01
298.15	.50008	1087.14	.01
298.15	.59922	1065.77	.01
298.15	.70034	1045.81	.01
298.15	.8003	1027.98	.01
298.15	.898	1012.2	.01
303.15	.20045	1152.15	.01
303.15	.30148	1129.93	.01
303.15	.40195	1106.69	.01
303.15	.50008	1084.55	.01
303.15	.59922	1063.34	.01
303.15	.70034	1043.7	.01
303.15	.8003	1026.15	.01
303.15	.898	1010.57	.01
308.15	.20045	1149.31	.01
308.15	.30148	1127.15	.01
308.15	.40195	1104.22	.01
308.15	.50008	1082.68	.01
308.15	.59922	1061.63	.01
308.15	.70034	1041.8	.01
308.15	.8003	1024.53	.01
308.15	.898	1008.86	.01
313.15	.20045	1146.46	.01
313.15	.30148	1124.33	.01
313.15	.40195	1101.07	.01
313.15	.50008	1080.38	.01
313.15	.59922	1059.44	.01
313.15	.70034	1039.52	.01
313.15	.8003	1022.66	.01
313.15	.898	1007.2	.01
318.15	.20045	1143.59	.01
318.15	.30148	1121.85	.01
318.15	.40195	1098.34	.01
318.15	.50008	1078.58	.01
318.15	.59922	1057.08	.01
318.15	.70034	1037.12	.01
318.15	.8003	1021.05	.01
318.15	.898	1005.65	.01
