Measured thermophysical data. Binary Diffusion Coefficient Data of Various Gas Systems Determined Using a Loschmidt Cell and Holographic Interferometry
Source: Int. J. Thermophys., 2015, 10.1007/s10765-015-1981-5
Compound 1: argon, Ar
Compound 2: xenon, Xe
Compound 3: krypton, Kr
Compound 4: helium, He
Compound 5: ammonia, H3N
Compound 6: nitrogen, N2
Compound 7: nitrous oxide, N2O
Compound 8: propane, C3H8

System: argon + xenon; phases: Gas
Fixed: Mole fraction of argon = .5
Property: Binary diffusion coefficient, m2/s (Gas); method: Loschmidt cell combine with holographic interferometry
Pressure, kPa	Temperature, K	Binary diffusion coefficient, m2/s	uncertainty
100	293.15	0.0000312	
100	313.15	0.000035	
100	333.15	0.0000388	
200	293.15	0.0000156	
200	313.15	0.0000175	
200	333.15	0.0000194	
500	293.15	0.00000629	
500	313.15	0.00000702	
500	333.15	0.00000776	
1000	293.15	0.00000312	
1000	313.15	0.00000348	
1000	333.15	0.00000388	

System: krypton + helium; phases: Gas
Fixed: Mole fraction of krypton = .5
Property: Binary diffusion coefficient, m2/s (Gas); method: Loschmidt cell combine with holographic interferometry
Pressure, kPa	Temperature, K	Binary diffusion coefficient, m2/s	uncertainty
100	293.15	0.0000619	
100	313.15	0.0000704	
200	293.15	0.0000312	
200	313.15	0.0000348	
200	333.15	0.0000384	
200	353.15	0.0000425	
500	293.15	0.0000125	
500	313.15	0.0000134	
500	333.15	0.0000155	
500	353.15	0.0000171	
1000	293.15	0.00000618	
1000	313.15	0.00000694	
1000	333.15	0.0000077	
1000	353.15	0.00000854	

System: helium + ammonia; phases: Gas
Fixed: Mole fraction of helium = .5
Property: Binary diffusion coefficient, m2/s (Gas); method: Loschmidt cell combine with holographic interferometry
Pressure, kPa	Temperature, K	Binary diffusion coefficient, m2/s	uncertainty
100	293.15	0.0000736	
200	293.15	0.000037	
200	313.15	0.000041	
500	293.15	0.0000146	
500	313.15	0.0000165	
800	293.15	0.00000896	
800	313.15	0.0000102	
800	333.15	0.0000113	
800	353.15	0.0000126	

System: nitrogen + nitrous oxide; phases: Gas
Fixed: Mole fraction of nitrogen = .5
Property: Binary diffusion coefficient, m2/s (Gas); method: Loschmidt cell combine with holographic interferometry
Pressure, kPa	Temperature, K	Binary diffusion coefficient, m2/s	uncertainty
100	293.15	0.0000153	
100	313.15	0.0000176	
200	293.15	0.0000079	
200	313.15	0.00000898	
500	293.15	0.00000314	
500	313.15	0.00000355	
500	333.15	0.00000428	
1000	293.15	0.00000156	
1000	313.15	0.00000177	
1000	333.15	0.00000198	
1000	353.15	0.00000224	

System: propane + helium; phases: Gas
Fixed: Mole fraction of propane = .5
Property: Binary diffusion coefficient, m2/s (Gas); method: Loschmidt cell combine with holographic interferometry
Pressure, kPa	Temperature, K	Binary diffusion coefficient, m2/s	uncertainty
100	293.15	0.000039	
100	313.15	0.0000436	
200	293.15	0.0000195	
200	313.15	0.0000218	
200	333.15	0.000024	
