Measured thermophysical data. A Capillary Tube Viscometer Designed for Measurements of Hydrogen Gas Viscosity at High Pressure and High Temperature
Source: Int. J. Thermophys., 2011, 10.1007/s10765-011-0999-6
Compound 1: nitrogen, N2
Compound 2: hydrogen, H2

System: nitrogen; phases: Gas
Property: Viscosity, Pa*s (Gas); method: Capillary tube (Ostwald; Ubbelohde) method
Temperature, K	Pressure, kPa	Viscosity, Pa*s	uncertainty
297.3	570	.00001774	.0000003548
297.32	2900	.00001836	.0000003672
297.32	4960	.00001892	.0000003784
297.33	9020	.0000199	.000000398
297.25	24520	.00002464	.0000004928
297.22	31330	.00002799	.0000005598
297.23	40300	.00003044	.0000006088
297.24	50620	.00003457	.0000006914
297.26	70280	.00004283	.0000008566
297.25	85020	.0000474	.000000948
297.45	60740	.00003906	.0000007812
297.46	95040	.00005291	.0000010582
333.14	10530	.00002163	.0000004326
333.16	15340	.0000222	.000000444
333.22	24490	.00002538	.0000005076
333.3	34970	.00002945	.000000589
333.42	48850	.00003239	.0000006478
333.51	74270	.00003968	.0000007936
333.59	95150	.00004811	.0000009622
400.07	7230	.00002297	.0000004594
400.07	10740	.00002334	.0000004668
400.07	15630	.00002427	.0000004854
400.07	25910	.00002639	.0000005278
400.07	35280	.0000284	.000000568
400.07	47240	.00003189	.0000006378
400.07	65020	.00003573	.0000007146
400.07	95070	.00004385	.000000877
499.43	10560	.00002699	.0000005398
499.24	30120	.00002951	.0000005902
499.24	48890	.00003275	.000000655
499.24	69570	.00003658	.0000007316
499.24	94610	.00004084	.0000008168

System: hydrogen; phases: Gas
Property: Viscosity, Pa*s (Gas); method: Capillary tube (Ostwald; Ubbelohde) method
Temperature, K	Pressure, kPa	Viscosity, Pa*s	uncertainty
294.52	4680	.00000901	.0000001802
294.91	10160	.00000911	.0000001822
294.1	34430	.00000964	.0000001928
295.01	52730	.00001021	.0000002042
295	81640	.00001139	.0000002278
295.02	99320	.00001196	.0000002392
294.52	4680	.00000901	.0000001802
333.28	4940	.00000983	.0000001966
333.32	9480	.0000099	.000000198
333.3	48480	.00001055	.000000211
333.31	69110	.00001122	.0000002244
333.31	94920	.00001217	.0000002434
400.11	4830	.00001109	.0000002218
400.11	9190	.00001127	.0000002254
400.1	28190	.00001115	.000000223
400.11	49790	.00001163	.0000002326
400.12	71210	.00001217	.0000002434
