Measured thermophysical data. Densities, Viscosities, Speeds of Sound, and Refractive Indices of Binary Mixtures of 2-Ethyl-1-hexanol with Benzene and Halobenzenes
Source: Int. J. Thermophys., 2013, 10.1007/s10765-013-1526-8
Compound 1: 2-ethyl-1-hexanol, C8H18O, purity 99.5%
Compound 2: benzene, C6H6, purity 99.7%
Compound 3: chlorobenzene, C6H5Cl, purity 99.7%
Compound 4: bromobenzene, C6H5Br, purity 99%

System: 2-ethyl-1-hexanol; phases: Liquid
Property: Mass density, kg/m3 (Liquid); method: Vibrating tube method
Temperature, K	Pressure, kPa	Mass density, kg/m3	uncertainty
298.15	101	829.07	.01
303.15	101	825.39	.01
308.15	101	821.68	.01

System: 2-ethyl-1-hexanol; phases: Liquid
Property: Speed of sound, m/s (Liquid); method: Sing-around technique in a fixed-path interferometer
Temperature, K	Pressure, kPa	Speed of sound, m/s	uncertainty
298.15	101	1319	.5
303.15	101	1301	.5
308.15	101	1283	.5

System: 2-ethyl-1-hexanol; phases: Liquid
Property: Viscosity, Pa*s (Liquid); method: Capillary tube (Ostwald; Ubbelohde) method
Temperature, K	Pressure, kPa	Viscosity, Pa*s	uncertainty
298.15	101	.008418	.000003
303.15	101	.007144	.000003
308.15	101	.00609	.000003

System: 2-ethyl-1-hexanol; phases: Liquid
Fixed: Pressure, kPa = 101.325
Property: Refractive index (Na D-line) (Liquid); method: Standard Abbe refractometry
Temperature, K	Refractive index (Na D-line)	uncertainty
298.15	1.4287	.0001
303.15	1.4266	.0001
308.15	1.4245	.0001

System: benzene; phases: Liquid
Property: Mass density, kg/m3 (Liquid); method: Vibrating tube method
Temperature, K	Pressure, kPa	Mass density, kg/m3	uncertainty
298.15	101	873.66	.01
303.15	101	868.29	.01
308.15	101	862.92	.01

System: benzene; phases: Liquid
Property: Speed of sound, m/s (Liquid); method: Sing-around technique in a fixed-path interferometer
Temperature, K	Pressure, kPa	Speed of sound, m/s	uncertainty
298.15	101	1299	.5
303.15	101	1276	.5
308.15	101	1253	.5

System: benzene; phases: Liquid
Property: Viscosity, Pa*s (Liquid); method: Capillary tube (Ostwald; Ubbelohde) method
Temperature, K	Pressure, kPa	Viscosity, Pa*s	uncertainty
298.15	101	.000603	.000003
303.15	101	.000557	.000003
308.15	101	.000533	.000003

System: benzene; phases: Liquid
Fixed: Pressure, kPa = 101.325
Property: Refractive index (Na D-line) (Liquid); method: Standard Abbe refractometry
Temperature, K	Refractive index (Na D-line)	uncertainty
298.15	1.4969	.0001
303.15	1.4949	.0001
308.15	1.4929	.0001

System: chlorobenzene; phases: Liquid
Property: Mass density, kg/m3 (Liquid); method: Vibrating tube method
Temperature, K	Pressure, kPa	Mass density, kg/m3	uncertainty
298.15	101	1101.03	.01
303.15	101	1095.52	.01
308.15	101	1090.2	.01

System: chlorobenzene; phases: Liquid
Property: Speed of sound, m/s (Liquid); method: Sing-around technique in a fixed-path interferometer
Temperature, K	Pressure, kPa	Speed of sound, m/s	uncertainty
298.15	101	1268	.5
303.15	101	1249	.5
308.15	101	1231	.5

System: chlorobenzene; phases: Liquid
Property: Viscosity, Pa*s (Liquid); method: Capillary tube (Ostwald; Ubbelohde) method
Temperature, K	Pressure, kPa	Viscosity, Pa*s	uncertainty
298.15	101	.000767	.000003
303.15	101	.000716	.000003
308.15	101	.00066	.000003

System: chlorobenzene; phases: Liquid
Fixed: Pressure, kPa = 101.325
Property: Refractive index (Na D-line) (Liquid); method: Standard Abbe refractometry
Temperature, K	Refractive index (Na D-line)	uncertainty
298.15	1.524	.0001
303.15	1.521	.0001
308.15	1.518	.0001

System: bromobenzene; phases: Liquid
Property: Mass density, kg/m3 (Liquid); method: Vibrating tube method
Temperature, K	Pressure, kPa	Mass density, kg/m3	uncertainty
298.15	101	1488.12	.01
303.15	101	1481.4	.01
308.15	101	1474.58	.01

System: bromobenzene; phases: Liquid
Property: Speed of sound, m/s (Liquid); method: Sing-around technique in a fixed-path interferometer
Temperature, K	Pressure, kPa	Speed of sound, m/s	uncertainty
298.15	101	1153	.5
303.15	101	1138	.5
308.15	101	1122	.5

System: bromobenzene; phases: Liquid
Property: Viscosity, Pa*s (Liquid); method: Capillary tube (Ostwald; Ubbelohde) method
Temperature, K	Pressure, kPa	Viscosity, Pa*s	uncertainty
298.15	101	.001065	.000003
303.15	101	.001005	.000003
308.15	101	.000972	.000003

System: bromobenzene; phases: Liquid
Fixed: Pressure, kPa = 101.325
Property: Refractive index (Na D-line) (Liquid); method: Standard Abbe refractometry
Temperature, K	Refractive index (Na D-line)	uncertainty
298.15	1.557	.0001
303.15	1.555	.0001
308.15	1.553	.0001

System: benzene + 2-ethyl-1-hexanol; phases: Liquid
Fixed: Pressure, kPa = 101
Property: Mass density, kg/m3 (Liquid); method: Vibrating tube method
Temperature, K	Mole fraction of benzene	Mass density, kg/m3	uncertainty
298.15	0	829.07	.01
298.15	.0606	829.89	.01
298.15	.1203	830.77	.01
298.15	.1798	831.79	.01
298.15	.2384	832.95	.01
298.15	.3132	834.73	.01
298.15	.3915	836.9	.01
298.15	.4515	838.87	.01
298.15	.526	841.73	.01
298.15	.5849	844.27	.01
298.15	.6557	847.83	.01
298.15	.726	851.85	.01
298.15	.7937	856.26	.01
298.15	.8592	861.07	.01
298.15	.9299	867.04	.01
298.15	1	873.66	.01
303.15	0	825.39	.01
303.15	.0606	826.11	.01
303.15	.1203	826.92	.01
303.15	.1798	827.89	.01
303.15	.2384	828.98	.01
303.15	.3132	830.66	.01
303.15	.3915	832.74	.01
303.15	.4515	834.63	.01
303.15	.526	837.35	.01
303.15	.5849	839.78	.01
303.15	.6557	843.22	.01
303.15	.726	847.09	.01
303.15	.7937	851.36	.01
303.15	.8592	856.01	.01
303.15	.9299	861.77	.01
303.15	1	868.29	.01
308.15	0	821.68	.01
308.15	.0606	822.28	.01
308.15	.1203	823.05	.01
308.15	.1798	823.96	.01
308.15	.2384	825.01	.01
308.15	.3132	826.61	.01
308.15	.3915	828.57	.01
308.15	.4515	830.4	.01
308.15	.526	832.98	.01
308.15	.5849	835.32	.01
308.15	.6557	838.62	.01
308.15	.726	842.36	.01
308.15	.7937	846.49	.01
308.15	.8592	850.99	.01
308.15	.9299	856.56	.01
308.15	1	862.92	.01

System: benzene + 2-ethyl-1-hexanol; phases: Liquid
Fixed: Pressure, kPa = 101
Property: Speed of sound, m/s (Liquid); method: Sing-around technique in a fixed-path interferometer
Temperature, K	Mole fraction of benzene	Speed of sound, m/s	uncertainty
298.15	0	1319	.5
298.15	.0606	1313	.5
298.15	.1203	1308	.5
298.15	.1798	1304	.5
298.15	.2384	1299	.5
298.15	.3132	1293	.5
298.15	.3915	1288	.5
298.15	.4515	1283	.5
298.15	.526	1278	.5
298.15	.5849	1275	.5
298.15	.6557	1273	.5
298.15	.726	1272	.5
298.15	.7937	1273	.5
298.15	.8592	1276	.5
298.15	.9299	1284	.5
298.15	1	1299	.5
303.15	0	1301	.5
303.15	.0606	1297	.5
303.15	.1203	1292	.5
303.15	.1798	1287	.5
303.15	.2384	1282	.5
303.15	.3132	1275	.5
303.15	.3915	1269	.5
303.15	.4515	1264	.5
303.15	.526	1258	.5
303.15	.5849	1255	.5
303.15	.6557	1252	.5
303.15	.726	1252	.5
303.15	.7937	1253	.5
303.15	.8592	1256	.5
303.15	.9299	1264	.5
303.15	1	1276	.5
308.15	0	1283	.5
308.15	.0606	1278	.5
308.15	.1203	1273	.5
308.15	.1798	1269	.5
308.15	.2384	1265	.5
308.15	.3132	1260	.5
308.15	.3915	1255	.5
308.15	.4515	1252	.5
308.15	.526	1248	.5
308.15	.5849	1245	.5
308.15	.6557	1242	.5
308.15	.726	1240	.5
308.15	.7937	1239	.5
308.15	.8592	1240	.5
308.15	.9299	1243	.5
308.15	1	1253	.5

System: benzene + 2-ethyl-1-hexanol; phases: Liquid
Fixed: Pressure, kPa = 101
Property: Viscosity, Pa*s (Liquid); method: Capillary tube (Ostwald; Ubbelohde) method
Temperature, K	Mole fraction of benzene	Viscosity, Pa*s	uncertainty
298.15	0	.008418	.000003
298.15	.0606	.007185	.000003
298.15	.1203	.006102	.000003
298.15	.1798	.005153	.000003
298.15	.2384	.004364	.000003
298.15	.3132	.003469	.000003
298.15	.3915	.002697	.000003
298.15	.4515	.002222	.000003
298.15	.526	.001749	.000003
298.15	.5849	.001474	.000003
298.15	.6557	.001202	.000003
298.15	.726	.001008	.000003
298.15	.7937	.000866	.000003
298.15	.8592	.000764	.000003
298.15	.9299	.00068	.000003
298.15	1	.000603	.000003
303.15	0	.007144	.000003
303.15	.0606	.005969	.000003
303.15	.1203	.004984	.000003
303.15	.1798	.004114	.000003
303.15	.2384	.003409	.000003
303.15	.3132	.002624	.000003
303.15	.3915	.002002	.000003
303.15	.4515	.001621	.000003
303.15	.526	.001305	.000003
303.15	.5849	.001127	.000003
303.15	.6557	.000953	.000003
303.15	.726	.000852	.000003
303.15	.7937	.000758	.000003
303.15	.8592	.000701	.000003
303.15	.9299	.000654	.000003
303.15	1	.000557	.000003
308.15	0	.00609	.000003
308.15	.0606	.005084	.000003
308.15	.1203	.00422	.000003
308.15	.1798	.00349	.000003
308.15	.2384	.002903	.000003
308.15	.3132	.002272	.000003
308.15	.3915	.001741	.000003
308.15	.4515	.001451	.000003
308.15	.526	.001174	.000003
308.15	.5849	.00102	.000003
308.15	.6557	.000881	.000003
308.15	.726	.000785	.000003
308.15	.7937	.000713	.000003
308.15	.8592	.000659	.000003
308.15	.9299	.000605	.000003
308.15	1	.000533	.000003

System: benzene + 2-ethyl-1-hexanol; phases: Liquid
Fixed: Pressure, kPa = 101
Property: Refractive index (Na D-line) (Liquid); method: Standard Abbe refractometry
Temperature, K	Mole fraction of benzene	Refractive index (Na D-line)	uncertainty
298.15	0	1.4287	.0001
298.15	.0606	1.4332	.0001
298.15	.1203	1.4376	.0001
298.15	.1798	1.4418	.0001
298.15	.2384	1.4463	.0001
298.15	.3132	1.4519	.0001
298.15	.3915	1.4577	.0001
298.15	.4515	1.4624	.0001
298.15	.526	1.468	.0001
298.15	.5849	1.4726	.0001
298.15	.6557	1.4778	.0001
298.15	.726	1.4829	.0001
298.15	.7937	1.4877	.0001
298.15	.8592	1.492	.0001
298.15	.9299	1.4953	.0001
298.15	1	1.4969	.0001
303.15	0	1.4266	.0001
303.15	.0606	1.4312	.0001
303.15	.1203	1.4355	.0001
303.15	.1798	1.4397	.0001
303.15	.2384	1.4442	.0001
303.15	.3132	1.4499	.0001
303.15	.3915	1.4557	.0001
303.15	.4515	1.4604	.0001
303.15	.526	1.4661	.0001
303.15	.5849	1.4708	.0001
303.15	.6557	1.4761	.0001
303.15	.726	1.4811	.0001
303.15	.7937	1.4858	.0001
303.15	.8592	1.4899	.0001
303.15	.9299	1.4934	.0001
303.15	1	1.4949	.0001
308.15	0	1.4245	.0001
308.15	.0606	1.4292	.0001
308.15	.1203	1.4335	.0001
308.15	.1798	1.4378	.0001
308.15	.2384	1.4423	.0001
308.15	.3132	1.448	.0001
308.15	.3915	1.4539	.0001
308.15	.4515	1.4585	.0001
308.15	.526	1.4642	.0001
308.15	.5849	1.4689	.0001
308.15	.6557	1.4743	.0001
308.15	.726	1.4793	.0001
308.15	.7937	1.4839	.0001
308.15	.8592	1.4879	.0001
308.15	.9299	1.4913	.0001
308.15	1	1.4929	.0001

System: 2-ethyl-1-hexanol + chlorobenzene; phases: Liquid
Fixed: Pressure, kPa = 101
Property: Mass density, kg/m3 (Liquid); method: Vibrating tube method
Temperature, K	Mole fraction of chlorobenzene	Mass density, kg/m3	uncertainty
298.15	0	829.07	.01
298.15	.0779	838.66	.01
298.15	.1381	847.37	.01
298.15	.1974	857.02	.01
298.15	.2716	870.89	.01
298.15	.3399	885.34	.01
298.15	.4119	902.38	.01
298.15	.4766	919.17	.01
298.15	.5461	938.46	.01
298.15	.6124	958.72	.01
298.15	.6892	983.65	.01
298.15	.758	1007.82	.01
298.15	.8189	1029.88	.01
298.15	.8888	1056.63	.01
298.15	.9533	1081.91	.01
298.15	1	1101.03	.01
303.15	0	825.39	.01
303.15	.0779	834.41	.01
303.15	.1381	842.5	.01
303.15	.1974	852.03	.01
303.15	.2716	865.78	.01
303.15	.3399	880.07	.01
303.15	.4119	897.12	.01
303.15	.4766	914.02	.01
303.15	.5461	933.51	.01
303.15	.6124	953.51	.01
303.15	.6892	978.28	.01
303.15	.758	1002.29	.01
303.15	.8189	1024.42	.01
303.15	.8888	1050.99	.01
303.15	.9533	1076.27	.01
303.15	1	1095.52	.01
308.15	0	821.68	.01
308.15	.0779	829.62	.01
308.15	.1381	837.63	.01
308.15	.1974	846.84	.01
308.15	.2716	860.76	.01
308.15	.3399	875.1	.01
308.15	.4119	892.15	.01
308.15	.4766	908.93	.01
308.15	.5461	928.26	.01
308.15	.6124	948.46	.01
308.15	.6892	973.49	.01
308.15	.758	996.87	.01
308.15	.8189	1018.95	.01
308.15	.8888	1045.23	.01
308.15	.9533	1070.96	.01
308.15	1	1090.2	.01

System: 2-ethyl-1-hexanol + chlorobenzene; phases: Liquid
Fixed: Pressure, kPa = 101
Property: Speed of sound, m/s (Liquid); method: Sing-around technique in a fixed-path interferometer
Temperature, K	Mole fraction of chlorobenzene	Speed of sound, m/s	uncertainty
298.15	0	1319	.5
298.15	.0779	1313	.5
298.15	.1381	1308	.5
298.15	.1974	1304	.5
298.15	.2716	1298	.5
298.15	.3399	1292	.5
298.15	.4119	1287	.5
298.15	.4766	1282	.5
298.15	.5461	1277	.5
298.15	.6124	1272	.5
298.15	.6892	1268	.5
298.15	.758	1265	.5
298.15	.8189	1264	.5
298.15	.8888	1263	.5
298.15	.9533	1265	.5
298.15	1	1268	.5
303.15	0	1301	.5
303.15	.0779	1295	.5
303.15	.1381	1291	.5
303.15	.1974	1286	.5
303.15	.2716	1280	.5
303.15	.3399	1275	.5
303.15	.4119	1269	.5
303.15	.4766	1264	.5
303.15	.5461	1259	.5
303.15	.6124	1254	.5
303.15	.6892	1250	.5
303.15	.758	1247	.5
303.15	.8189	1246	.5
303.15	.8888	1245	.5
303.15	.9533	1247	.5
303.15	1	1249	.5
308.15	0	1283	.5
308.15	.0779	1277	.5
308.15	.1381	1273	.5
308.15	.1974	1268	.5
308.15	.2716	1263	.5
308.15	.3399	1257	.5
308.15	.4119	1252	.5
308.15	.4766	1247	.5
308.15	.5461	1242	.5
308.15	.6124	1237	.5
308.15	.6892	1233	.5
308.15	.758	1230	.5
308.15	.8189	1228	.5
308.15	.8888	1228	.5
308.15	.9533	1229	.5
308.15	1	1231	.5

System: 2-ethyl-1-hexanol + chlorobenzene; phases: Liquid
Fixed: Pressure, kPa = 101
Property: Viscosity, Pa*s (Liquid); method: Capillary tube (Ostwald; Ubbelohde) method
Temperature, K	Mole fraction of chlorobenzene	Viscosity, Pa*s	uncertainty
298.15	0	.008418	.000003
298.15	.0779	.006736	.000003
298.15	.1381	.005641	.000003
298.15	.1974	.004684	.000003
298.15	.2716	.003718	.000003
298.15	.3399	.002996	.000003
298.15	.4119	.00238	.000003
298.15	.4766	.001969	.000003
298.15	.5461	.001628	.000003
298.15	.6124	.001381	.000003
298.15	.6892	.001197	.000003
298.15	.758	.00106	.000003
298.15	.8189	.000969	.000003
298.15	.8888	.000893	.000003
298.15	.9533	.000821	.000003
298.15	1	.000767	.000003
303.15	0	.007144	.000003
303.15	.0779	.005817	.000003
303.15	.1381	.004906	.000003
303.15	.1974	.004121	.000003
303.15	.2716	.003268	.000003
303.15	.3399	.002671	.000003
303.15	.4119	.002147	.000003
303.15	.4766	.001785	.000003
303.15	.5461	.001455	.000003
303.15	.6124	.001253	.000003
303.15	.6892	.001057	.000003
303.15	.758	.000968	.000003
303.15	.8189	.000881	.000003
303.15	.8888	.00081	.000003
303.15	.9533	.000764	.000003
303.15	1	.000716	.000003
308.15	0	.00609	.000003
308.15	.0779	.004854	.000003
308.15	.1381	.004032	.000003
308.15	.1974	.003363	.000003
308.15	.2716	.002689	.000003
308.15	.3399	.002171	.000003
308.15	.4119	.001749	.000003
308.15	.4766	.00145	.000003
308.15	.5461	.001221	.000003
308.15	.6124	.001068	.000003
308.15	.6892	.00096	.000003
308.15	.758	.000879	.000003
308.15	.8189	.000824	.000003
308.15	.8888	.000774	.000003
308.15	.9533	.000719	.000003
308.15	1	.00066	.000003

System: 2-ethyl-1-hexanol + chlorobenzene; phases: Liquid
Fixed: Pressure, kPa = 101
Property: Refractive index (Na D-line) (Liquid); method: Standard Abbe refractometry
Temperature, K	Mole fraction of chlorobenzene	Refractive index (Na D-line)	uncertainty
298.15	0	1.4287	.0001
298.15	.0779	1.435	.0001
298.15	.1381	1.44	.0001
298.15	.1974	1.4453	.0001
298.15	.2716	1.4523	.0001
298.15	.3399	1.4591	.0001
298.15	.4119	1.4666	.0001
298.15	.4766	1.4734	.0001
298.15	.5461	1.4807	.0001
298.15	.6124	1.4879	.0001
298.15	.6892	1.4961	.0001
298.15	.758	1.5034	.0001
298.15	.8189	1.5095	.0001
298.15	.8888	1.5161	.0001
298.15	.9533	1.521	.0001
298.15	1	1.524	.0001
303.15	0	1.4266	.0001
303.15	.0779	1.4332	.0001
303.15	.1381	1.4382	.0001
303.15	.1974	1.4437	.0001
303.15	.2716	1.4509	.0001
303.15	.3399	1.4577	.0001
303.15	.4119	1.4651	.0001
303.15	.4766	1.472	.0001
303.15	.5461	1.4793	.0001
303.15	.6124	1.4863	.0001
303.15	.6892	1.4943	.0001
303.15	.758	1.5015	.0001
303.15	.8189	1.5076	.0001
303.15	.8888	1.514	.0001
303.15	.9533	1.5186	.0001
303.15	1	1.521	.0001
308.15	0	1.4245	.0001
308.15	.0779	1.4308	.0001
308.15	.1381	1.4362	.0001
308.15	.1974	1.4416	.0001
308.15	.2716	1.4491	.0001
308.15	.3399	1.4561	.0001
308.15	.4119	1.4637	.0001
308.15	.4766	1.4706	.0001
308.15	.5461	1.4778	.0001
308.15	.6124	1.4849	.0001
308.15	.6892	1.4929	.0001
308.15	.758	1.4998	.0001
308.15	.8189	1.5056	.0001
308.15	.8888	1.5116	.0001
308.15	.9533	1.5161	.0001
308.15	1	1.518	.0001

System: 2-ethyl-1-hexanol + bromobenzene; phases: Liquid
Fixed: Pressure, kPa = 101
Property: Mass density, kg/m3 (Liquid); method: Vibrating tube method
Temperature, K	Mole fraction of bromobenzene	Mass density, kg/m3	uncertainty
298.15	0	829.07	.01
298.15	.0623	846.06	.01
298.15	.1321	869.44	.01
298.15	.202	895.09	.01
298.15	.2694	924.23	.01
298.15	.336	956.85	.01
298.15	.3981	991.69	.01
298.15	.4625	1031.18	.01
298.15	.5272	1074.92	.01
298.15	.5918	1122.9	.01
298.15	.6627	1179.58	.01
298.15	.7278	1235.29	.01
298.15	.7941	1295.12	.01
298.15	.8633	1359.7	.01
298.15	.9266	1418.41	.01
298.15	1	1488.12	.01
303.15	0	825.39	.01
303.15	.0623	842.3	.01
303.15	.1321	864.98	.01
303.15	.202	891.19	.01
303.15	.2694	920.76	.01
303.15	.336	952.81	.01
303.15	.3981	986.69	.01
303.15	.4625	1026.09	.01
303.15	.5272	1069.83	.01
303.15	.5918	1117.3	.01
303.15	.6627	1173.8	.01
303.15	.7278	1229.12	.01
303.15	.7941	1288.41	.01
303.15	.8633	1351.6	.01
303.15	.9266	1410.1	.01
303.15	1	1481.4	.01
308.15	0	821.68	.01
308.15	.0623	837.02	.01
308.15	.1321	859.74	.01
308.15	.202	886.06	.01
308.15	.2694	915.17	.01
308.15	.336	947.49	.01
308.15	.3981	981.89	.01
308.15	.4625	1021.03	.01
308.15	.5272	1064.57	.01
308.15	.5918	1111.88	.01
308.15	.6627	1168.02	.01
308.15	.7278	1222.21	.01
308.15	.7941	1279.2	.01
308.15	.8633	1339.82	.01
308.15	.9266	1398.8	.01
308.15	1	1474.58	.01

System: 2-ethyl-1-hexanol + bromobenzene; phases: Liquid
Fixed: Pressure, kPa = 101
Property: Speed of sound, m/s (Liquid); method: Sing-around technique in a fixed-path interferometer
Temperature, K	Mole fraction of bromobenzene	Speed of sound, m/s	uncertainty
298.15	0	1319	.5
298.15	.0623	1305	.5
298.15	.1321	1295	.5
298.15	.202	1290	.5
298.15	.2694	1285	.5
298.15	.336	1281	.5
298.15	.3981	1279	.5
298.15	.4625	1277	.5
298.15	.5272	1273	.5
298.15	.5918	1268	.5
298.15	.6627	1259	.5
298.15	.7278	1248	.5
298.15	.7941	1236	.5
298.15	.8633	1216	.5
298.15	.9266	1194	.5
298.15	1	1153	.5
303.15	0	1301	.5
303.15	.0623	1291	.5
303.15	.1321	1282	.5
303.15	.202	1276	.5
303.15	.2694	1272	.5
303.15	.336	1270	.5
303.15	.3981	1268	.5
303.15	.4625	1266	.5
303.15	.5272	1264	.5
303.15	.5918	1261	.5
303.15	.6627	1254	.5
303.15	.7278	1241	.5
303.15	.7941	1226	.5
303.15	.8633	1206	.5
303.15	.9266	1183	.5
303.15	1	1138	.5
308.15	0	1283	.5
308.15	.0623	1279	.5
308.15	.1321	1273	.5
308.15	.202	1267	.5
308.15	.2694	1263	.5
308.15	.336	1259	.5
308.15	.3981	1254	.5
308.15	.4625	1251	.5
308.15	.5272	1247	.5
308.15	.5918	1241	.5
308.15	.6627	1232	.5
308.15	.7278	1218	.5
308.15	.7941	1203	.5
308.15	.8633	1183	.5
308.15	.9266	1161	.5
308.15	1	1122	.5

System: 2-ethyl-1-hexanol + bromobenzene; phases: Liquid
Fixed: Pressure, kPa = 101
Property: Viscosity, Pa*s (Liquid); method: Capillary tube (Ostwald; Ubbelohde) method
Temperature, K	Mole fraction of bromobenzene	Viscosity, Pa*s	uncertainty
298.15	0	.008418	.000003
298.15	.0623	.007004	.000003
298.15	.1321	.005672	.000003
298.15	.202	.00456	.000003
298.15	.2694	.003717	.000003
298.15	.336	.003044	.000003
298.15	.3981	.002553	.000003
298.15	.4625	.002187	.000003
298.15	.5272	.001923	.000003
298.15	.5918	.001728	.000003
298.15	.6627	.001594	.000003
298.15	.7278	.00149	.000003
298.15	.7941	.001444	.000003
298.15	.8633	.001359	.000003
298.15	.9266	.001266	.000003
298.15	1	.001065	.000003
303.15	0	.007144	.000003
303.15	.0623	.005889	.000003
303.15	.1321	.004765	.000003
303.15	.202	.003838	.000003
303.15	.2694	.003126	.000003
303.15	.336	.002577	.000003
303.15	.3981	.002197	.000003
303.15	.4625	.001907	.000003
303.15	.5272	.001702	.000003
303.15	.5918	.001548	.000003
303.15	.6627	.001458	.000003
303.15	.7278	.00139	.000003
303.15	.7941	.001355	.000003
303.15	.8633	.001297	.000003
303.15	.9266	.001205	.000003
303.15	1	.001005	.000003
308.15	0	.00609	.000003
308.15	.0623	.005101	.000003
308.15	.1321	.004181	.000003
308.15	.202	.003414	.000003
308.15	.2694	.002814	.000003
308.15	.336	.00235	.000003
308.15	.3981	.002004	.000003
308.15	.4625	.001722	.000003
308.15	.5272	.001522	.000003
308.15	.5918	.00137	.000003
308.15	.6627	.001265	.000003
308.15	.7278	.001192	.000003
308.15	.7941	.001149	.000003
308.15	.8633	.001099	.000003
308.15	.9266	.001052	.000003
308.15	1	.000972	.000003

System: 2-ethyl-1-hexanol + bromobenzene; phases: Liquid
Fixed: Pressure, kPa = 101
Property: Refractive index (Na D-line) (Liquid); method: Standard Abbe refractometry
Temperature, K	Mole fraction of bromobenzene	Refractive index (Na D-line)	uncertainty
298.15	0	1.4287	.0001
298.15	.0623	1.4348	.0001
298.15	.1321	1.4416	.0001
298.15	.202	1.4486	.0001
298.15	.2694	1.4554	.0001
298.15	.336	1.4625	.0001
298.15	.3981	1.4693	.0001
298.15	.4625	1.4767	.0001
298.15	.5272	1.4844	.0001
298.15	.5918	1.4925	.0001
298.15	.6627	1.502	.0001
298.15	.7278	1.5112	.0001
298.15	.7941	1.5212	.0001
298.15	.8633	1.5325	.0001
298.15	.9266	1.5433	.0001
298.15	1	1.557	.0001
303.15	0	1.4266	.0001
303.15	.0623	1.4332	.0001
303.15	.1321	1.4403	.0001
303.15	.202	1.4472	.0001
303.15	.2694	1.4542	.0001
303.15	.336	1.4611	.0001
303.15	.3981	1.4678	.0001
303.15	.4625	1.475	.0001
303.15	.5272	1.4826	.0001
303.15	.5918	1.4906	.0001
303.15	.6627	1.5	.0001
303.15	.7278	1.5092	.0001
303.15	.7941	1.5191	.0001
303.15	.8633	1.5303	.0001
303.15	.9266	1.5412	.0001
303.15	1	1.555	.0001
308.15	0	1.4245	.0001
308.15	.0623	1.4306	.0001
308.15	.1321	1.4376	.0001
308.15	.202	1.4447	.0001
308.15	.2694	1.4517	.0001
308.15	.336	1.4587	.0001
308.15	.3981	1.4655	.0001
308.15	.4625	1.4728	.0001
308.15	.5272	1.4805	.0001
308.15	.5918	1.4886	.0001
308.15	.6627	1.4981	.0001
308.15	.7278	1.5072	.0001
308.15	.7941	1.5171	.0001
308.15	.8633	1.528	.0001
308.15	.9266	1.5388	.0001
308.15	1	1.553	.0001
