Measured thermophysical data. Densities, Viscosities, Sound Speeds, Refractive Indices, and Excess Properties of Binary Mixtures of Isoamyl Alcohol with Some Alkoxyethanols
Source: Int. J. Thermophys., 2010, 10.1007/s10765-010-0719-7
Compound 1: 1-butanol, 3-methyl-, C5H12O
Compound 2: ethylene glycol, monomethyl ether, C3H8O2
Compound 3: ethylene glycol, ethyl ether, C4H10O2
Compound 4: 2-butoxyethanol, C6H14O2

System: 1-butanol, 3-methyl-; phases: Liquid
Property: Mass density, kg/m3 (Liquid); method: Pycnometric method
Temperature, K	Pressure, kPa	Mass density, kg/m3	uncertainty
303.15	101	803.1	.3
313.15	101	796.4	.3
323.15	101	789.8	.3

System: 1-butanol, 3-methyl-; phases: Liquid
Property: Viscosity, Pa*s (Liquid); method: Capillary tube (Ostwald; Ubbelohde) method
Temperature, K	Pressure, kPa	Viscosity, Pa*s	uncertainty
303.15	101	.0032622	.0000002
313.15	101	.0024409	.0000002
323.15	101	.0019396	.0000002

System: 1-butanol, 3-methyl-; phases: Liquid
Fixed: Pressure, kPa = 101.325
Property: Refractive index (Na D-line) (Liquid); method: Standard Abbe refractometry
Temperature, K	Refractive index (Na D-line)	uncertainty
303.15	1.4035	.0002

System: 1-butanol, 3-methyl-; phases: Liquid
Property: Speed of sound, m/s (Liquid); method: Pulse-echo method
Temperature, K	Pressure, kPa	Speed of sound, m/s	uncertainty
303.15	101	1197.4	.2

System: ethylene glycol, monomethyl ether; phases: Liquid
Property: Mass density, kg/m3 (Liquid); method: Pycnometric method
Temperature, K	Pressure, kPa	Mass density, kg/m3	uncertainty
303.15	101	956.8	.3
313.15	101	946.3	.3
323.15	101	937.8	.3

System: ethylene glycol, monomethyl ether; phases: Liquid
Property: Viscosity, Pa*s (Liquid); method: Capillary tube (Ostwald; Ubbelohde) method
Temperature, K	Pressure, kPa	Viscosity, Pa*s	uncertainty
303.15	101	.0015496	.0000002
313.15	101	.0012883	.0000002
323.15	101	.0010824	.0000002

System: ethylene glycol, monomethyl ether; phases: Liquid
Fixed: Pressure, kPa = 101.325
Property: Refractive index (Na D-line) (Liquid); method: Standard Abbe refractometry
Temperature, K	Refractive index (Na D-line)	uncertainty
303.15	1.3983	.0002

System: ethylene glycol, monomethyl ether; phases: Liquid
Property: Speed of sound, m/s (Liquid); method: Pulse-echo method
Temperature, K	Pressure, kPa	Speed of sound, m/s	uncertainty
303.15	101	1324.3	.2

System: ethylene glycol, ethyl ether; phases: Liquid
Property: Mass density, kg/m3 (Liquid); method: Pycnometric method
Temperature, K	Pressure, kPa	Mass density, kg/m3	uncertainty
303.15	101	919.5	.3
313.15	101	912	.3
323.15	101	903.8	.3

System: ethylene glycol, ethyl ether; phases: Liquid
Property: Viscosity, Pa*s (Liquid); method: Capillary tube (Ostwald; Ubbelohde) method
Temperature, K	Pressure, kPa	Viscosity, Pa*s	uncertainty
303.15	101	.0016226	.0000002
313.15	101	.0013554	.0000002
323.15	101	.0011432	.0000002

System: ethylene glycol, ethyl ether; phases: Liquid
Fixed: Pressure, kPa = 101.325
Property: Refractive index (Na D-line) (Liquid); method: Standard Abbe refractometry
Temperature, K	Refractive index (Na D-line)	uncertainty
303.15	1.4065	.0002

System: ethylene glycol, ethyl ether; phases: Liquid
Property: Speed of sound, m/s (Liquid); method: Pulse-echo method
Temperature, K	Pressure, kPa	Speed of sound, m/s	uncertainty
303.15	101	1301.5	.2

System: 2-butoxyethanol; phases: Liquid
Property: Mass density, kg/m3 (Liquid); method: Pycnometric method
Temperature, K	Pressure, kPa	Mass density, kg/m3	uncertainty
303.15	101	892	.3
313.15	101	884.2	.3
323.15	101	877.5	.3

System: 2-butoxyethanol; phases: Liquid
Property: Viscosity, Pa*s (Liquid); method: Capillary tube (Ostwald; Ubbelohde) method
Temperature, K	Pressure, kPa	Viscosity, Pa*s	uncertainty
303.15	101	.0024864	.0000002
313.15	101	.0019788	.0000002
323.15	101	.0016525	.0000002

System: 2-butoxyethanol; phases: Liquid
Fixed: Pressure, kPa = 101.325
Property: Refractive index (Na D-line) (Liquid); method: Standard Abbe refractometry
Temperature, K	Refractive index (Na D-line)	uncertainty
303.15	1.415	.0002

System: 2-butoxyethanol; phases: Liquid
Property: Speed of sound, m/s (Liquid); method: Pulse-echo method
Temperature, K	Pressure, kPa	Speed of sound, m/s	uncertainty
303.15	101	1288.4	.2

System: ethylene glycol, monomethyl ether + 1-butanol, 3-methyl-; phases: Liquid
Fixed: Pressure, kPa = 101
Property: Mass density, kg/m3 (Liquid); method: Pycnometric method
Temperature, K	Mole fraction of 1-butanol, 3-methyl-	Mass density, kg/m3	uncertainty
303.15	0	956.8	.3
303.15	.0875	938.3	.3
303.15	.1775	920.5	.3
303.15	.2701	903.2	.3
303.15	.3653	886.7	.3
303.15	.4633	870.8	.3
303.15	.5643	855.8	.3
303.15	.6683	841.5	.3
303.15	.7754	827.8	.3
303.15	.886	815.1	.3
303.15	1	803.1	.3
313.15	0	946.3	.3
313.15	.0875	928.2	.3
313.15	.1775	910.8	.3
313.15	.2701	893.9	.3
313.15	.3653	877.6	.3
313.15	.4633	862.2	.3
313.15	.5643	847.6	.3
313.15	.6683	833.6	.3
313.15	.7754	820.5	.3
313.15	.886	808.1	.3
313.15	1	796.4	.3
323.15	0	937.8	.3
323.15	.0875	919.8	.3
323.15	.1775	902.8	.3
323.15	.2701	885.9	.3
323.15	.3653	870	.3
323.15	.4633	854.7	.3
323.15	.5643	840.1	.3
323.15	.6683	826.3	.3
323.15	.7754	813.2	.3
323.15	.886	801.1	.3
323.15	1	789.8	.3

System: ethylene glycol, monomethyl ether + 1-butanol, 3-methyl-; phases: Liquid
Fixed: Pressure, kPa = 101
Property: Viscosity, Pa*s (Liquid); method: Capillary tube (Ostwald; Ubbelohde) method
Temperature, K	Mole fraction of 1-butanol, 3-methyl-	Viscosity, Pa*s	uncertainty
303.15	0	.0015496	.0000002
303.15	.0875	.0015784	.0000002
303.15	.1775	.0016106	.0000002
303.15	.2701	.0016521	.0000002
303.15	.3653	.0017492	.0000002
303.15	.4633	.00182	.0000002
303.15	.5643	.0019339	.0000002
303.15	.6683	.002119	.0000002
303.15	.7754	.0023539	.0000002
303.15	.886	.0027148	.0000002
303.15	1	.0032622	.0000002
313.15	0	.0012883	.0000002
313.15	.0875	.001312	.0000002
313.15	.1775	.0013412	.0000002
313.15	.2701	.0013763	.0000002
313.15	.3653	.0014323	.0000002
313.15	.4633	.0014823	.0000002
313.15	.5643	.0015537	.0000002
313.15	.6683	.0016675	.0000002
313.15	.7754	.0018341	.0000002
313.15	.886	.0020595	.0000002
313.15	1	.0024409	.0000002
323.15	0	.0010824	.0000002
323.15	.0875	.0011114	.0000002
323.15	.1775	.0011526	.0000002
323.15	.2701	.0011689	.0000002
323.15	.3653	.0011921	.0000002
323.15	.4633	.0012236	.0000002
323.15	.5643	.0012801	.0000002
323.15	.6683	.0013552	.0000002
323.15	.7754	.0014811	.0000002
323.15	.886	.0016708	.0000002
323.15	1	.0019396	.0000002

System: ethylene glycol, monomethyl ether + 1-butanol, 3-methyl-; phases: Liquid
Fixed: Pressure, kPa = 101
Property: Refractive index (Na D-line) (Liquid); method: Standard Abbe refractometry
Temperature, K	Mole fraction of 1-butanol, 3-methyl-	Refractive index (Na D-line)	uncertainty
303.15	0	1.3983	.0002
303.15	.0875	1.3988	.0002
303.15	.1775	1.3993	.0002
303.15	.2701	1.3999	.0002
303.15	.3653	1.4004	.0002
303.15	.4633	1.4009	.0002
303.15	.5643	1.4014	.0002
303.15	.6683	1.402	.0002
303.15	.7754	1.4025	.0002
303.15	.886	1.403	.0002
303.15	1	1.4035	.0002

System: ethylene glycol, monomethyl ether + 1-butanol, 3-methyl-; phases: Liquid
Fixed: Pressure, kPa = 101
Property: Speed of sound, m/s (Liquid); method: Pulse-echo method
Temperature, K	Mole fraction of 1-butanol, 3-methyl-	Speed of sound, m/s	uncertainty
303.15	0	1324.3	.2
303.15	.0875	1312.1	.2
303.15	.1775	1299.2	.2
303.15	.2701	1287.4	.2
303.15	.3653	1274.8	.2
303.15	.4633	1261.2	.2
303.15	.5643	1248.8	.2
303.15	.6683	1235.7	.2
303.15	.7754	1223.3	.2
303.15	.886	1210.5	.2
303.15	1	1197.4	.2

System: ethylene glycol, ethyl ether + 1-butanol, 3-methyl-; phases: Liquid
Fixed: Pressure, kPa = 101
Property: Mass density, kg/m3 (Liquid); method: Pycnometric method
Temperature, K	Mole fraction of 1-butanol, 3-methyl-	Mass density, kg/m3	uncertainty
303.15	0	919.5	.3
303.15	.102	906.1	.3
303.15	.2036	892.9	.3
303.15	.3047	880.1	.3
303.15	.4053	867.7	.3
303.15	.5055	855.8	.3
303.15	.6053	844.3	.3
303.15	.7046	833.3	.3
303.15	.8035	822.8	.3
303.15	.902	812.6	.3
303.15	1	803.1	.3
313.15	0	912	.3
313.15	.102	898.6	.3
313.15	.2036	885.6	.3
313.15	.3047	872.9	.3
313.15	.4053	860.5	.3
313.15	.5055	848.7	.3
313.15	.6053	837.3	.3
313.15	.7046	826.4	.3
313.15	.8035	815.9	.3
313.15	.902	805.8	.3
313.15	1	796.4	.3
323.15	0	903.8	.3
323.15	.102	890.5	.3
323.15	.2036	877.7	.3
323.15	.3047	865.1	.3
323.15	.4053	853	.3
323.15	.5055	841.3	.3
323.15	.6053	830	.3
323.15	.7046	819.2	.3
323.15	.8035	808.8	.3
323.15	.902	799	.3
323.15	1	789.8	.3

System: ethylene glycol, ethyl ether + 1-butanol, 3-methyl-; phases: Liquid
Fixed: Pressure, kPa = 101
Property: Viscosity, Pa*s (Liquid); method: Capillary tube (Ostwald; Ubbelohde) method
Temperature, K	Mole fraction of 1-butanol, 3-methyl-	Viscosity, Pa*s	uncertainty
303.15	0	.0016226	.0000002
303.15	.102	.0016885	.0000002
303.15	.2036	.001761	.0000002
303.15	.3047	.0018121	.0000002
303.15	.4053	.0018916	.0000002
303.15	.5055	.0019937	.0000002
303.15	.6053	.0021244	.0000002
303.15	.7046	.0023012	.0000002
303.15	.8035	.0024957	.0000002
303.15	.902	.0028067	.0000002
303.15	1	.0032622	.0000002
313.15	0	.0013554	.0000002
313.15	.102	.0013851	.0000002
313.15	.2036	.0014245	.0000002
313.15	.3047	.0014688	.0000002
313.15	.4053	.0015295	.0000002
313.15	.5055	.0016041	.0000002
313.15	.6053	.0016804	.0000002
313.15	.7046	.0018119	.0000002
313.15	.8035	.0019451	.0000002
313.15	.902	.0021431	.0000002
313.15	1	.0024409	.0000002
323.15	0	.0011432	.0000002
323.15	.102	.0011695	.0000002
323.15	.2036	.0011963	.0000002
323.15	.3047	.0012221	.0000002
323.15	.4053	.0012627	.0000002
323.15	.5055	.0013098	.0000002
323.15	.6053	.0013771	.0000002
323.15	.7046	.0014598	.0000002
323.15	.8035	.0015657	.0000002
323.15	.902	.0017275	.0000002
323.15	1	.0019396	.0000002

System: ethylene glycol, ethyl ether + 1-butanol, 3-methyl-; phases: Liquid
Fixed: Pressure, kPa = 101
Property: Refractive index (Na D-line) (Liquid); method: Standard Abbe refractometry
Temperature, K	Mole fraction of 1-butanol, 3-methyl-	Refractive index (Na D-line)	uncertainty
303.15	0	1.4065	.0002
303.15	.102	1.4062	.0002
303.15	.2036	1.4059	.0002
303.15	.3047	1.4055	.0002
303.15	.4053	1.4052	.0002
303.15	.5055	1.4049	.0002
303.15	.6053	1.4046	.0002
303.15	.7046	1.4043	.0002
303.15	.8035	1.404	.0002
303.15	.902	1.4037	.0002
303.15	1	1.4035	.0002

System: ethylene glycol, ethyl ether + 1-butanol, 3-methyl-; phases: Liquid
Fixed: Pressure, kPa = 101
Property: Speed of sound, m/s (Liquid); method: Pulse-echo method
Temperature, K	Mole fraction of 1-butanol, 3-methyl-	Speed of sound, m/s	uncertainty
303.15	0	1301.5	.2
303.15	.102	1292.4	.2
303.15	.2036	1282.4	.2
303.15	.3047	1272.7	.2
303.15	.4053	1262.9	.2
303.15	.5055	1251.2	.2
303.15	.6053	1240.6	.2
303.15	.7046	1229.3	.2
303.15	.8035	1219.2	.2
303.15	.902	1208.7	.2
303.15	1	1197.4	.2

System: 2-butoxyethanol + 1-butanol, 3-methyl-; phases: Liquid
Fixed: Pressure, kPa = 101
Property: Mass density, kg/m3 (Liquid); method: Pycnometric method
Temperature, K	Mole fraction of 1-butanol, 3-methyl-	Mass density, kg/m3	uncertainty
303.15	0	892	.3
303.15	.1297	882.2	.3
303.15	.251	872.5	.3
303.15	.3649	863.1	.3
303.15	.472	853.9	.3
303.15	.5728	845	.3
303.15	.6679	838.6	.3
303.15	.7578	827.7	.3
303.15	.8428	819.3	.3
303.15	.9235	811.1	.3
303.15	1	803.1	.3
313.15	0	884.2	.3
313.15	.1297	874.5	.3
313.15	.251	865.4	.3
313.15	.3649	856.1	.3
313.15	.472	847.2	.3
313.15	.5728	837.9	.3
313.15	.6679	829.5	.3
313.15	.7578	821	.3
313.15	.8428	812.5	.3
313.15	.9235	804.6	.3
313.15	1	796.4	.3
323.15	0	877.5	.3
323.15	.1297	867.7	.3
323.15	.251	858.2	.3
323.15	.3649	848.8	.3
323.15	.472	839.8	.3
323.15	.5728	831	.3
323.15	.6679	822.3	.3
323.15	.7578	813.9	.3
323.15	.8428	805.7	.3
323.15	.9235	797.6	.3
323.15	1	789.8	.3

System: 2-butoxyethanol + 1-butanol, 3-methyl-; phases: Liquid
Fixed: Pressure, kPa = 101
Property: Viscosity, Pa*s (Liquid); method: Capillary tube (Ostwald; Ubbelohde) method
Temperature, K	Mole fraction of 1-butanol, 3-methyl-	Viscosity, Pa*s	uncertainty
303.15	0	.0024864	.0000002
303.15	.1297	.0024826	.0000002
303.15	.251	.0024959	.0000002
303.15	.3649	.0025135	.0000002
303.15	.472	.0025572	.0000002
303.15	.5728	.0025937	.0000002
303.15	.6679	.0026532	.0000002
303.15	.7578	.002748	.0000002
303.15	.8428	.0028774	.0000002
303.15	.9235	.0030576	.0000002
303.15	1	.0032622	.0000002
313.15	0	.0019788	.0000002
313.15	.1297	.0019694	.0000002
313.15	.251	.0019674	.0000002
313.15	.3649	.0019873	.0000002
313.15	.472	.0019969	.0000002
313.15	.5728	.0020284	.0000002
313.15	.6679	.0020671	.0000002
313.15	.7578	.0021207	.0000002
313.15	.8428	.0022001	.0000002
313.15	.9235	.0023034	.0000002
313.15	1	.0024409	.0000002
323.15	0	.0016525	.0000002
323.15	.1297	.0016233	.0000002
323.15	.251	.0016286	.0000002
323.15	.3649	.0016363	.0000002
323.15	.472	.0016498	.0000002
323.15	.5728	.0016729	.0000002
323.15	.6679	.0017022	.0000002
323.15	.7578	.0017371	.0000002
323.15	.8428	.0017985	.0000002
323.15	.9235	.0018507	.0000002
323.15	1	.0019396	.0000002

System: 2-butoxyethanol + 1-butanol, 3-methyl-; phases: Liquid
Fixed: Pressure, kPa = 101
Property: Refractive index (Na D-line) (Liquid); method: Standard Abbe refractometry
Temperature, K	Mole fraction of 1-butanol, 3-methyl-	Refractive index (Na D-line)	uncertainty
303.15	0	1.415	.0002
303.15	.1297	1.4138	.0002
303.15	.251	1.4127	.0002
303.15	.3649	1.4115	.0002
303.15	.472	1.4104	.0002
303.15	.5728	1.4093	.0002
303.15	.6679	1.408	.0002
303.15	.7578	1.4069	.0002
303.15	.8428	1.4058	.0002
303.15	.9235	1.4047	.0002
303.15	1	1.4035	.0002

System: 2-butoxyethanol + 1-butanol, 3-methyl-; phases: Liquid
Fixed: Pressure, kPa = 101
Property: Speed of sound, m/s (Liquid); method: Pulse-echo method
Temperature, K	Mole fraction of 1-butanol, 3-methyl-	Speed of sound, m/s	uncertainty
303.15	0	1288.4	.2
303.15	.1297	1279.8	.2
303.15	.251	1270.3	.2
303.15	.3649	1261.8	.2
303.15	.472	1251.8	.2
303.15	.5728	1242.3	.2
303.15	.6679	1233.5	.2
303.15	.7578	1224.2	.2
303.15	.8428	1215.3	.2
303.15	.9235	1206.4	.2
303.15	1	1197.4	.2
