Measured thermophysical data. Viscosity of Imidazolium-Based Ionic Liquids at Elevated Pressures: Cation and Anion Effects
Source: Int. J. Thermophys., 2008
Compound 1: 1-ethyl-3-methylimidazolium bis[(trifluoromethyl)sulfonyl]imide, C8H11F6N3O4S2
Compound 2: 1-hexyl-3-methylimidazolium bis[(trifluoromethyl)sulfonyl]imide, C12H19F6N3O4S2
Compound 3: 1-decyl-3-methylimidazolium bis(trifluoromethylsulfonyl)imide, C16H23F6N3O4S2
Compound 4: 1-hexyl-3-methylimidazolium tetrafluoroborate, C10H19BF4N2
Compound 5: 1-hexyl-3-methylimidazolium hexafluorophosphate, C10H19F6N2P
Compound 6: 1-n-butyl-3-methylimidazolium hexafluorophosphate, C8H15F6N2P

System: 1-ethyl-3-methylimidazolium bis[(trifluoromethyl)sulfonyl]imide; phases: Liquid
Fixed: Pressure, kPa = 101.325
Property: Viscosity, Pa*s (Liquid); method: Cone and plate viscometry
Temperature, K	Viscosity, Pa*s	uncertainty
298.15	.0341	.0001023

System: 1-ethyl-3-methylimidazolium bis[(trifluoromethyl)sulfonyl]imide; phases: Liquid
Fixed: Pressure, kPa = 101.325
Property: Viscosity, Pa*s (Liquid); method: Moving piston method
Temperature, K	Viscosity, Pa*s	uncertainty
298.15	.03429	.00010287
323.15	.0156	.0000468
343.15	.00955	.00002865

System: 1-ethyl-3-methylimidazolium bis[(trifluoromethyl)sulfonyl]imide; phases: Liquid
Property: Viscosity, Pa*s (Liquid); method: Moving piston method
Temperature, K	Pressure, kPa	Viscosity, Pa*s	uncertainty
298.15	100	.0344	.001032
298.15	2820	.035	.00105
298.15	4190	.0353	.001059
298.15	7360	.0362	.001086
298.15	35560	.0468	.001404
298.15	48760	.0533	.001599
298.15	69300	.065	.00195
298.15	85200	.0794	.002382
298.15	96500	.09	.0027
298.15	110550	.1086	.003258
298.15	122430	.1315	.003945
323.15	100	.0156	.000468
323.15	2820	.0161	.000483
323.15	4190	.0164	.000492
323.15	7360	.0169	.000507
323.15	35560	.022	.00066
323.15	48760	.0249	.000747
323.15	69300	.0308	.000924
323.15	85200	.0367	.001101
323.15	96500	.0401	.001203
323.15	110550	.0448	.001344
323.15	121530	.0495	.001485
343.15	100	.0096	.000288
343.15	2820	.0098	.000294
343.15	4190	.0099	.000297
343.15	7360	.0102	.000306
343.15	35560	.0126	.000378
343.15	48760	.0138	.000414
343.15	69300	.016	.00048
343.15	85200	.0177	.000531
343.15	96500	.0192	.000576
343.15	110550	.0212	.000636
343.15	125530	.0234	.000702

System: 1-hexyl-3-methylimidazolium bis[(trifluoromethyl)sulfonyl]imide; phases: Liquid
Fixed: Pressure, kPa = 101.325
Property: Viscosity, Pa*s (Liquid); method: Cone and plate viscometry
Temperature, K	Viscosity, Pa*s	uncertainty
298.15	.0715	.0002145

System: 1-hexyl-3-methylimidazolium bis[(trifluoromethyl)sulfonyl]imide; phases: Liquid
Fixed: Pressure, kPa = 101.325
Property: Viscosity, Pa*s (Liquid); method: Moving piston method
Temperature, K	Viscosity, Pa*s	uncertainty
298.15	.071	.000213
323.15	.0249	.0000747
343.15	.0141	.0000423

System: 1-hexyl-3-methylimidazolium bis[(trifluoromethyl)sulfonyl]imide; phases: Liquid
Property: Viscosity, Pa*s (Liquid); method: Moving piston method
Temperature, K	Pressure, kPa	Viscosity, Pa*s	uncertainty
298.15	100	.07096	.0021288
298.15	2990	.07104	.0021312
298.15	4000	.07138	.0021414
298.15	7000	.07371	.0022113
298.15	35000	.1034	.003102
298.15	50000	.1222	.003666
298.15	70000	.1522	.004566
298.15	83000	.1732	.005196
298.15	93000	.1963	.005889
298.15	110000	.2376	.007128
298.15	124000	.2757	.008271
323.15	100	.0249	.000747
323.15	2990	.02581	.0007743
323.15	4000	.02598	.0007794
323.15	7000	.02687	.0008061
323.15	35000	.03596	.0010788
323.15	50000	.04157	.0012471
323.15	70000	.05043	.0015129
323.15	83000	.05696	.0017088
323.15	93000	.06211	.0018633
323.15	110000	.0716	.002148
323.15	124000	.08046	.0024138
343.15	100	.01407	.0004221
343.15	2990	.01412	.0004236
343.15	4000	.01422	.0004266
343.15	7000	.0146	.000438
343.15	35000	.01862	.0005586
343.15	50000	.0211	.000633
343.15	70000	.02517	.0007551
343.15	83000	.02812	.0008436
343.15	93000	.03042	.0009126
343.15	110000	.03465	.0010395
343.15	124000	.03834	.0011502

System: 1-decyl-3-methylimidazolium bis(trifluoromethylsulfonyl)imide; phases: Liquid
Fixed: Pressure, kPa = 101.325
Property: Viscosity, Pa*s (Liquid); method: Cone and plate viscometry
Temperature, K	Viscosity, Pa*s	uncertainty
298.15	.1112	.0003336

System: 1-decyl-3-methylimidazolium bis(trifluoromethylsulfonyl)imide; phases: Liquid
Fixed: Pressure, kPa = 101.325
Property: Viscosity, Pa*s (Liquid); method: Moving piston method
Temperature, K	Viscosity, Pa*s	uncertainty
298.15	.1082	.0003246
323.15	.0363	.0001089
343.15	.0182	.0000546

System: 1-decyl-3-methylimidazolium bis(trifluoromethylsulfonyl)imide; phases: Liquid
Property: Viscosity, Pa*s (Liquid); method: Moving piston method
Temperature, K	Pressure, kPa	Viscosity, Pa*s	uncertainty
298.15	100	.1082	.003246
298.15	2950	.1115	.003345
298.15	4270	.1128	.003384
298.15	6900	.1176	.003528
298.15	34600	.1675	.005025
298.15	47960	.199	.00597
298.15	68870	.257	.00771
298.15	83290	.3011	.009033
298.15	93030	.3367	.010101
298.15	109800	.4027	.012081
298.15	122570	.4598	.013794
323.15	100	.0362	.001086
323.15	2950	.0375	.001125
323.15	4270	.0382	.001146
323.15	6900	.0392	.001176
323.15	34600	.0536	.001608
323.15	47960	.0618	.001854
323.15	68870	.076	.00228
323.15	83290	.0859	.002577
323.15	93030	.0943	.002829
323.15	109800	.1108	.003324
323.15	122570	.1226	.003678
343.15	100	.01815	.0005445
343.15	2950	.01855	.0005565
343.15	4270	.01875	.0005625
343.15	6900	.0193	.000579
343.15	34600	.02576	.0007728
343.15	47960	.02915	.0008745
343.15	68870	.03572	.0010716
343.15	83290	.04047	.0012141
343.15	93030	.04456	.0013368
343.15	109800	.05126	.0015378
343.15	122570	.05674	.0017022

System: 1-hexyl-3-methylimidazolium tetrafluoroborate; phases: Liquid
Fixed: Pressure, kPa = 101.325
Property: Viscosity, Pa*s (Liquid); method: Cone and plate viscometry
Temperature, K	Viscosity, Pa*s	uncertainty
298.15	.2104	.0006312

System: 1-hexyl-3-methylimidazolium tetrafluoroborate; phases: Liquid
Fixed: Pressure, kPa = 101.325
Property: Viscosity, Pa*s (Liquid); method: Moving piston method
Temperature, K	Viscosity, Pa*s	uncertainty
298.15	.2024	.0006072
323.15	.0585	.0001755
343.15	.027	.000081

System: 1-hexyl-3-methylimidazolium tetrafluoroborate; phases: Liquid
Property: Viscosity, Pa*s (Liquid); method: Moving piston method
Temperature, K	Pressure, kPa	Viscosity, Pa*s	uncertainty
298.15	100	.202	.00606
298.15	2640	.209	.00627
298.15	4290	.213	.00639
298.15	6950	.215	.00645
298.15	34590	.299	.00897
298.15	48400	.387	.01161
298.15	68140	.478	.01434
298.15	82970	.532	.01596
298.15	96820	.621	.01863
298.15	108550	.743	.02229
298.15	117850	.819	.02457
323.15	100	.0585	.001755
323.15	2600	.0597	.001791
323.15	4130	.061	.00183
323.15	6850	.062	.00186
323.15	34520	.0799	.002397
323.15	48180	.0911	.002733
323.15	68990	.1082	.003246
323.15	82710	.1218	.003654
323.15	96550	.136	.00408
323.15	110120	.1524	.004572
323.15	121810	.165	.00495
343.15	100	.027	.00081
343.15	3100	.0276	.000828
343.15	4100	.0275	.000825
343.15	7100	.028	.00084
343.15	35100	.0352	.001056
343.15	48340	.0392	.001176
343.15	68140	.045	.00135
343.15	83080	.0499	.001497
343.15	96550	.0551	.001653
343.15	110120	.0608	.001824
343.15	121810	.065	.00195

System: 1-hexyl-3-methylimidazolium hexafluorophosphate; phases: Liquid
Fixed: Pressure, kPa = 101.325
Property: Viscosity, Pa*s (Liquid); method: Cone and plate viscometry
Temperature, K	Viscosity, Pa*s	uncertainty
298.15	.4895	.0014685

System: 1-hexyl-3-methylimidazolium hexafluorophosphate; phases: Liquid
Fixed: Pressure, kPa = 101.325
Property: Viscosity, Pa*s (Liquid); method: Moving piston method
Temperature, K	Viscosity, Pa*s	uncertainty
298.15	.4814	.0014442
323.15	.1214	.0003642
343.15	.0481	.0001443

System: 1-hexyl-3-methylimidazolium hexafluorophosphate; phases: Liquid
Property: Viscosity, Pa*s (Liquid); method: Moving piston method
Temperature, K	Pressure, kPa	Viscosity, Pa*s	uncertainty
298.15	100	.481	.01443
298.15	2990	.523	.01569
298.15	4000	.53	.0159
298.15	7000	.556	.01668
298.15	22000	.701	.02103
298.15	35000	.833	.02499
298.15	42100	.92	.0276
298.15	50000	1.023	.03069
298.15	60300	1.176	.03528
323.15	100	.1214	.003642
323.15	4000	.1271	.003813
323.15	7600	.1324	.003972
323.15	25800	.164	.00492
323.15	35000	.1826	.005478
323.15	50600	.2189	.006567
323.15	60300	.2417	.007251
323.15	76000	.2808	.008424
323.15	93000	.3342	.010026
323.15	101000	.3642	.010926
323.15	126000	.4831	.014493
343.15	100	.0481	.001443
343.15	4000	.0503	.001509
343.15	7600	.052	.00156
343.15	25800	.0626	.001878
343.15	35000	.0686	.002058
343.15	50600	.0805	.002415
343.15	60300	.0881	.002643
343.15	76000	.1025	.003075
343.15	93000	.1187	.003561
343.15	101000	.1271	.003813
343.15	126000	.1578	.004734

System: 1-n-butyl-3-methylimidazolium hexafluorophosphate; phases: Liquid
Property: Viscosity, Pa*s (Liquid); method: Moving piston method
Temperature, K	Pressure, kPa	Viscosity, Pa*s	uncertainty
298.15	100	.2709	.008127
298.15	3400	.2897	.008691
298.15	6900	.3057	.009171
298.15	12100	.3292	.009876
298.15	17200	.3537	.010611
298.15	24700	.3963	.011889
298.15	25700	.3982	.011946
298.15	41400	.4738	.014214
298.15	50600	.5434	.016302
