Measured thermophysical data. Thermophysical Properties of Binary Mixtures  of Methanol with Chlorobenzene and Bromobenzene  from 293K to 313K
Source: Int. J. Thermophys., 2008
Compound 1: methanol, CH4O
Compound 2: chlorobenzene, C6H5Cl
Compound 3: bromobenzene, C6H5Br

System: methanol; phases: Liquid
Property: Mass density, kg/m3 (Liquid); method: Pycnometric method
Temperature, K	Pressure, kPa	Mass density, kg/m3	uncertainty
293	101.325	791.1	.5
303	101.325	781.9	.5
313	101.325	772.4	.5

System: methanol; phases: Liquid
Property: Viscosity, Pa*s (Liquid); method: Capillary tube (Ostwald; Ubbelohde) method
Temperature, K	Pressure, kPa	Viscosity, Pa*s	uncertainty
293	101.325	.000591	.000002955
303	101.325	.000518	.00000259
313	101.325	.00045	.00000225

System: chlorobenzene; phases: Liquid
Property: Mass density, kg/m3 (Liquid); method: Pycnometric method
Temperature, K	Pressure, kPa	Mass density, kg/m3	uncertainty
293	101.325	1105.8	.5
303	101.325	1095	.5
313	101.325	1082	.5

System: chlorobenzene; phases: Liquid
Property: Viscosity, Pa*s (Liquid); method: Capillary tube (Ostwald; Ubbelohde) method
Temperature, K	Pressure, kPa	Viscosity, Pa*s	uncertainty
293	101.325	.0008432	.000004216
303	101.325	.000721	.000003605
313	101.325	.0006247	.0000031235

System: bromobenzene; phases: Liquid
Property: Mass density, kg/m3 (Liquid); method: Pycnometric method
Temperature, K	Pressure, kPa	Mass density, kg/m3	uncertainty
293	101.325	1497	.5
303	101.325	1483	.5
313	101.325	1467	.5

System: bromobenzene; phases: Liquid
Property: Viscosity, Pa*s (Liquid); method: Capillary tube (Ostwald; Ubbelohde) method
Temperature, K	Pressure, kPa	Viscosity, Pa*s	uncertainty
293	101.325	.001164	.00000582
303	101.325	.0009844	.000004922
313	101.325	.0008786	.000004393

System: methanol + chlorobenzene; phases: Liquid
Fixed: Pressure, kPa = 101
Property: Mass density, kg/m3 (Liquid); method: Pycnometric method
Temperature, K	Mole fraction of methanol	Mass density, kg/m3	uncertainty
293	0	1105.8	.5
293	.2808	1066.5	.5
293	.4676	1029.2	.5
293	.601	993.9	.5
293	.7009	960.5	.5
293	.7783	928.8	.5
293	.8405	898.5	.5
293	.8913	869.7	.5
293	.9335	842.3	.5
293	.9693	816.2	.5
293	1	791.1	.5
303	0	1095	.5
303	.2808	1056	.5
303	.4676	1019	.5
303	.601	983.7	.5
303	.7009	950.4	.5
303	.7783	918.9	.5
303	.8405	888.8	.5
303	.8913	860.1	.5
303	.9335	832.9	.5
303	.9693	806.8	.5
303	1	781.9	.5
313	0	1082	.5
313	.2808	1044	.5
313	.4676	1007	.5
313	.601	972.5	.5
313	.7009	939.4	.5
313	.7783	908.1	.5
313	.8405	878.3	.5
313	.8913	849.9	.5
313	.9335	822.9	.5
313	.9693	797.1	.5
313	1	772.4	.5

System: methanol + chlorobenzene; phases: Liquid
Fixed: Pressure, kPa = 101
Property: Viscosity, Pa*s (Liquid); method: Capillary tube (Ostwald; Ubbelohde) method
Temperature, K	Mole fraction of methanol	Viscosity, Pa*s	uncertainty
293	0	.0008432	.000004216
293	.2808	.0008312	.000004156
293	.4676	.0008209	.0000041045
293	.601	.0008018	.000004009
293	.7009	.0007699	.0000038495
293	.7783	.0007256	.000003628
293	.8405	.000692	.00000346
293	.8913	.0006766	.000003383
293	.9335	.0006424	.000003212
293	.9693	.0006194	.000003097
293	1	.000591	.000002955
303	0	.000721	.000003605
303	.2808	.0007121	.0000035605
303	.4676	.0006924	.000003462
303	.601	.0006821	.0000034105
303	.7009	.0006572	.000003286
303	.7783	.0006093	.0000030465
303	.8405	.0005828	.000002914
303	.8913	.0005672	.000002836
303	.9335	.0005401	.0000027005
303	.9693	.000528	.00000264
303	1	.000518	.00000259
313	0	.0006247	.0000031235
313	.2808	.0006157	.0000030785
313	.4676	.0006041	.0000030205
313	.601	.0005832	.000002916
313	.7009	.0005569	.0000027845
313	.7783	.0005296	.000002648
313	.8405	.00051	.00000255
313	.8913	.0004961	.0000024805
313	.9335	.0004701	.0000023505
313	.9693	.0004591	.0000022955
313	1	.00045	.00000225

System: methanol + bromobenzene; phases: Liquid
Fixed: Pressure, kPa = 101
Property: Mass density, kg/m3 (Liquid); method: Pycnometric method
Temperature, K	Mole fraction of methanol	Mass density, kg/m3	uncertainty
293	0	1497	.5
293	.3528	1381	.5
293	.5504	1280	.5
293	.6775	1192	.5
293	.7657	1114	.5
293	.8305	1045	.5
293	.8802	983	.5
293	.9195	927.6	.5
293	.9552	871.4	.5
293	.9778	832.3	.5
293	1	791.1	.5
303	0	1483	.5
303	.3528	1367	.5
303	.5504	1267	.5
303	.6775	1179	.5
303	.7657	1102	.5
303	.8305	1033	.5
303	.8802	972.1	.5
303	.9195	917.2	.5
303	.9552	861.5	.5
303	.9778	822.8	.5
303	1	781.9	.5
313	0	1467	.5
313	.3528	1352	.5
313	.5504	1253	.5
313	.6775	1166	.5
313	.7657	1089	.5
313	.8305	1021	.5
313	.8802	960.7	.5
313	.9195	906.4	.5
313	.9552	851.1	.5
313	.9778	812.9	.5
313	1	772.4	.5

System: methanol + bromobenzene; phases: Liquid
Fixed: Pressure, kPa = 101
Property: Viscosity, Pa*s (Liquid); method: Capillary tube (Ostwald; Ubbelohde) method
Temperature, K	Mole fraction of methanol	Viscosity, Pa*s	uncertainty
293	0	.001164	.00000582
293	.3528	.001124	.00000562
293	.5504	.001008	.00000504
293	.6775	.0008873	.0000044365
293	.7657	.0008144	.000004072
293	.8305	.0007619	.0000038095
293	.8802	.0007235	.0000036175
293	.9195	.000686	.00000343
293	.9552	.000657	.000003285
293	.9778	.0006312	.000003156
293	1	.000591	.000002955
303	0	.0009844	.000004922
303	.3528	.0009306	.000004653
303	.5504	.0008356	.000004178
303	.6775	.000742	.00000371
303	.7657	.0006962	.000003481
303	.8305	.0006467	.0000032335
303	.8802	.000617	.000003085
303	.9195	.0005891	.0000029455
303	.9552	.0005651	.0000028255
303	.9778	.0005344	.000002672
303	1	.000518	.00000259
313	0	.0008786	.000004393
313	.3528	.0008142	.000004071
313	.5504	.0007399	.0000036995
313	.6775	.0006444	.000003222
313	.7657	.0006019	.0000030095
313	.8305	.0005686	.000002843
313	.8802	.0005451	.0000027255
313	.9195	.000513	.000002565
313	.9552	.00049	.00000245
313	.9778	.0004773	.0000023865
313	1	.00045	.00000225
