Measured thermophysical data. Thermal Conductivity of Mixtures of Carbon Dioxide  and Ethane in the Critical Region
Source: Int. J. Thermophys., 2008
Compound 1: carbon dioxide, CO2
Compound 2: ethane, C2H6

System: ethane + carbon dioxide; phases: Fluid (supercritical or subcritical phases)
Property: Thermal conductivity, W/m/K (Fluid (supercritical or subcritical phases)); method: Parallel plate method
Mole fraction of carbon dioxide	Amount density, mol/m3	Temperature, K	Thermal conductivity, W/m/K	uncertainty
.25	446	318.152	.0232	
.25	446	308.075	.0219	
.25	446	302.023	.0214	
.25	446	299.02	.0212	
.25	446	299.01	.0211	
.25	446	297.517	.021	
.25	446	296.88	.021	
.25	446	296.565	.0209	
.25	446	296.125	.0209	
.25	2940	318.164	.0316	
.25	2940	308.149	.031	
.25	2940	302.041	.0307	
.25	2940	298.996	.0305	
.25	2940	297.47	.0305	
.25	2940	296.864	.0306	
.25	2940	296.516	.0308	
.25	2940	296.242	.0312	
.25	2940	296.141	.0304	
.25	5680	318.272	.0481	
.25	5680	308.701	.0516	
.25	5680	302.017	.056	
.25	5680	298.992	.0623	
.25	5680	297.459	.0677	
.25	5680	296.847	.0729	
.25	5680	296.451	.0719	
.25	5680	296.293	.0757	
.25	5680	296.188	.0751	
.25	5680	296.183	.075	
.25	6830	318.139	.0532	
.25	6830	308.011	.0567	
.25	6830	302.035	.0658	
.25	6830	301.995	.0658	
.25	6830	298.988	.0779	
.25	6830	297.467	.102	
.25	6830	297.465	.102	
.25	6830	297.456	.11	
.25	6830	296.842	.142	
.25	6830	296.791	.218	
.25	6830	296.741	.199	
.25	6830	296.656	.138	
.25	6830	296.461	.102	
.25	6830	296.221	.0855	
.25	6830	296.197	.0909	
.25	6870	296.826	.157	
.25	6870	296.8	.168	
.25	6870	296.766	.195	
.25	6870	296.764	.189	
.25	6870	296.748	.204	
.25	6870	296.733	.195	
.25	6870	296.711	.214	
.25	6870	296.703	.188	
.25	6870	296.701	.177	
.25	6870	298.685	.169	
.25	7450	308.06	.0646	
.25	7450	298.954	.081	
.25	7450	296.881	.145	
.25	7450	296.755	.157	
.25	7450	296.737	.145	
.25	7450	296.721	.166	
.25	7450	296.716	.164	
.25	7450	296.708	.175	
.25	7450	296.699	.154	
.25	7450	296.687	.186	
.25	7450	296.646	.183	
.25	7450	296.64	.186	
.25	7450	296.62	.184	
.25	7450	296.579	.157	
.25	7450	296.524	.131	
.25	7450	296.406	.117	
.25	7450	296.402	.124	
.25	7450	296.222	.099	
.25	7450	296.218	.0888	
.25	7450	296.072	.0888	
.25	7450	295.975	.0881	
.25	7450	295.871	.0833	
.25	7450	295.756	.0843	
.25	7450	295.606	.0795	
.25	7490	318.135	.0559	
.25	7490	308.02	.0614	
.25	7490	302.06	.0699	
.25	7490	298.989	.0811	
.25	7490	297.481	.111	
.25	7490	296.88	.139	
.25	7490	296.541	.166	
.25	7490	296.442	.13	
.25	7490	296.441	.124	
.25	7490	296.397	.114	
.25	7490	296.337	.107	
.25	7490	296.306	.102	
.25	7490	296.183	.0914	
.25	8450	318.164	.049	
.25	8450	308.226	.0617	
.25	8450	302.049	.0676	
.25	8450	297.443	.0821	
.25	8450	296.802	.0921	
.25	8450	296.215	.107	
.25	8450	296.106	.11	
.25	8450	296.057	.112	
.25	10780	318.145	.065	
.25	10780	308.116	.0659	
.25	10780	298.988	.0684	
.25	10780	297.499	.0671	
.25	10780	296.143	.0692	
.26	877	318.193	.0236	
.26	877	308.095	.0228	
.26	877	302.009	.0222	
.26	877	296.87	.0217	
.26	877	293.153	.0213	
.26	3090	318.165	.0318	
.26	3090	308.158	.0314	
.26	3090	302.105	.0311	
.26	3090	297.156	.0313	
.26	3090	293.641	.0314	
.26	6710	318.207	.0503	
.26	6710	308.182	.054	
.26	6710	301.934	.0624	
.26	6710	296.866	.11	
.26	6710	296.844	.111	
.26	6710	296.816	.118	
.26	6710	296.516	.135	
.26	6710	296.435	.167	
.26	6710	296.396	.18	
.26	6710	296.394	.166	
.26	6710	296.381	.193	
.26	6710	296.381	.172	
.26	6710	296.375	.147	
.26	6710	296.362	.166	
.26	6710	296.343	.159	
.26	6710	296.236	.118	
.26	6710	296.096	.0958	
.26	6710	296.054	.101	
.26	6710	296.053	.099	
.26	6710	295.732	.0845	
.26	6710	294.96	.075	
.26	6710	293.082	.0687	
.5	435	318.11	.0218	
.5	435	308.087	.0207	
.5	435	308.074	.0207	
.5	435	301.977	.0203	
.5	435	296.055	.0196	
.5	435	293.155	.0193	
.5	435	292.083	.0192	
.5	435	291.505	.0192	
.5	435	291.336	.0192	
.5	435	291.085	.0191	
.5	2940	318.143	.0293	
.5	2940	307.987	.0279	
.5	2940	302.01	.0281	
.5	2940	296.073	.0278	
.5	2940	293.13	.0277	
.5	2940	292.109	.0276	
.5	2940	291.547	.0274	
.5	2940	291.34	.0274	
.5	2940	291.055	.0276	
.5	5650	318.149	.0398	
.5	5650	318.132	.0411	
.5	5650	308.062	.041	
.5	5650	302.433	.0436	
.5	5650	296.035	.047	
.5	5650	293.144	.052	
.5	5650	292.093	.0546	
.5	5650	291.569	.0553	
.5	5650	291.35	.0542	
.5	5650	291.072	.0554	
.5	6960	318.128	.0425	
.5	6960	308.016	.0468	
.5	6960	301.958	.0531	
.5	6960	296.073	.062	
.5	6960	295.697	.0639	
.5	6960	293.086	.0861	
.5	6960	292.054	.099	
.5	6960	292.054	.0913	
.5	6960	291.347	.111	
.5	6960	291.341	.11	
.5	6960	291.178	.108	
.5	6960	291.172	.11	
.5	6960	291.112	.104	
.5	6960	291.058	.099	
.5	7530	318.115	.0445	
.5	7530	308.029	.0469	
.5	7530	301.946	.0505	
.5	7530	296.022	.0642	
.5	7530	293.083	.0833	
.5	7530	292.052	.106	
.5	7530	291.567	.139	
.5	7530	291.347	.172	
.5	7530	291.333	.206	
.5	7530	291.318	.21	
.5	7530	291.294	.158	
.5	7530	291.257	.159	
.5	7530	291.2	.144	
.5	7530	291.067	.114	
.5	7730	318.131	.0403	
.5	7730	308.005	.0462	
.5	7730	301.907	.0493	
.5	7730	296.021	.0595	
.5	7730	293.111	.0798	
.5	7730	292.051	.102	
.5	7730	291.551	.128	
.5	7730	291.336	.203	
.5	7730	291.236	.151	
.74	6630	318.111	.0382	
.74	6630	308.179	.0413	
.74	6630	302.253	.0436	
.74	6630	299.01	.0467	
.74	6630	296.055	.0506	
.74	6630	296.05	.0507	
.74	6630	293.153	.0578	
.74	6630	292.638	.0593	
.74	9120	318.038	.0354	
.74	9120	308.064	.0485	
.74	9120	298.485	.06	
.74	9120	296.032	.0663	
.74	9120	294.723	.0824	
.74	9120	294.325	.0842	
.74	9120	293.952	.101	
.74	9120	293.531	.116	
.74	9120	293.339	.135	
.74	9120	293.239	.156	
.74	9120	293.168	.16	
.74	9120	293.154	.213	
