Measured thermophysical data. Study on Isochoric Specific Heat Capacity of Liquid R-410A and HFE-347pcf2
Source: Int. J. Thermophys., 2009, 10.1007/s10765-010-0766-0
Compound 1: methane, difluoro-, CH2F2, purity 99.97%
Compound 2: 1,1,1,2,2-pentafluoroethane, C2HF5, purity 99.9%
Compound 3: 2,2,2-trifluoroethyl 1,1,2,2-tetrafluoroethyl ether, C4H3F7O, purity 99.9%

System: 2,2,2-trifluoroethyl 1,1,2,2-tetrafluoroethyl ether; phases: Liquid
Property: Mass density, kg/m3 (Liquid); method: Pycnometric method
Temperature, K	Pressure, kPa	Mass density, kg/m3	uncertainty
280.15	6663	1534.9	2.45584
281.15	7673	1534.6	2.45536
282.15	8685	1534.4	2.45504
283.15	9695	1534.2	2.45472
284.15	10704	1534	2.4544
285.15	11710	1533.8	2.45408
286.15	12714	1533.6	2.45376
287.15	13718	1533.4	2.45344
288.15	14719	1533.2	2.45312
289.15	15719	1533	2.4528
290.15	16716	1532.8	2.45248
291.15	17712	1532.6	2.45216
292.15	18704	1532.4	2.45184
293.15	19694	1532.3	2.45168
294.15	20683	1532.1	2.45136
295.15	21669	1531.9	2.45104
296.15	22653	1531.8	2.45088
297.15	23636	1531.6	2.45056
298.15	24616	1531.4	2.45024
299.15	25595	1531.3	2.45008
300.15	26572	1531.1	2.44976
301.15	27548	1531	2.4496
302.15	28522	1530.9	2.44944
303.15	29493	1530.7	2.44912
279.15	5663	1535.2	2.45632
280.15	6673	1534.9	2.45584
281.15	7685	1534.7	2.45552
282.15	8696	1534.5	2.4552
283.15	9705	1534.3	2.45488
284.15	10712	1534	2.4544
285.15	11717	1533.8	2.45408
286.15	12720	1533.6	2.45376
287.15	13722	1533.4	2.45344
288.15	14722	1533.2	2.45312
289.15	15720	1533	2.4528
290.15	16717	1532.8	2.45248
291.15	17711	1532.6	2.45216
292.15	18703	1532.5	2.452
293.15	19694	1532.3	2.45168
294.15	20683	1532.1	2.45136
295.15	21669	1531.9	2.45104
296.15	22654	1531.8	2.45088
297.15	23636	1531.6	2.45056
298.15	24617	1531.4	2.45024
299.15	25596	1531.3	2.45008
300.15	26573	1531.1	2.44976
301.15	27548	1531	2.4496
302.15	28521	1530.9	2.44944
303.15	29493	1530.7	2.44912
302.15	7147	1484.2	2.37472
303.15	8010	1484	2.3744
304.15	8873	1483.8	2.37408
305.15	9734	1483.6	2.37376
306.15	10594	1483.4	2.37344
307.15	11452	1483.2	2.37312
308.15	12308	1483.1	2.37296
309.15	13163	1482.9	2.37264
310.15	14016	1482.7	2.37232
311.15	14867	1482.5	2.372
312.15	15718	1482.4	2.37184
313.15	16566	1482.2	2.37152
314.15	17414	1482	2.3712
315.15	18260	1481.8	2.37088
316.15	19105	1481.7	2.37072
317.15	19949	1481.5	2.3704
318.15	20791	1481.4	2.37024
319.15	21632	1481.2	2.36992
320.15	22471	1481.1	2.36976
321.15	23311	1480.9	2.36944
322.15	24148	1480.8	2.36928
323.15	24983	1480.6	2.36896
324.15	25819	1480.5	2.3688
325.15	26653	1480.4	2.36864
326.15	27484	1480.2	2.36832
327.15	28315	1480.1	2.36816
328.15	29145	1480	2.368
329.15	29975	1479.9	2.36784
301.15	6294	1484.4	2.37504
303.15	8015	1484	2.3744
304.15	8874	1483.8	2.37408
305.15	9734	1483.6	2.37376
306.15	10592	1483.4	2.37344
307.15	11449	1483.2	2.37312
308.15	12303	1483	2.3728
309.15	13157	1482.8	2.37248
310.15	14009	1482.7	2.37232
311.15	14859	1482.5	2.372
312.15	15708	1482.3	2.37168
313.15	16557	1482.1	2.37136
314.15	17405	1482	2.3712
315.15	18252	1481.8	2.37088
316.15	19097	1481.7	2.37072
317.15	19942	1481.5	2.3704
318.15	20785	1481.4	2.37024
319.15	21626	1481.2	2.36992
320.15	22467	1481.1	2.36976
321.15	23306	1480.9	2.36944
322.15	24144	1480.8	2.36928
323.15	24980	1480.6	2.36896
324.15	25816	1480.5	2.3688
325.15	26650	1480.4	2.36864
326.15	27482	1480.2	2.36832
327.15	28313	1480.1	2.36816
328.15	29144	1480	2.368
329.15	29973	1479.9	2.36784
329.15	7678	1420.3	2.27248
330.15	8385	1420.1	2.27216
331.15	9091	1420	2.272
332.15	9796	1419.8	2.27168
333.15	10500	1419.6	2.27136
334.15	11204	1419.5	2.2712
335.15	11908	1419.3	2.27088
336.15	12610	1419.2	2.27072
337.15	13313	1419	2.2704
338.15	14014	1418.8	2.27008
339.15	14714	1418.7	2.26992
340.15	15413	1418.5	2.2696
341.15	16111	1418.4	2.26944
342.15	16809	1418.3	2.26928
343.15	17505	1418.1	2.26896
344.15	18201	1418	2.2688
345.15	18896	1417.8	2.26848
346.15	19590	1417.7	2.26832
347.15	20282	1417.5	2.268
348.15	20974	1417.4	2.26784
349.15	21666	1417.3	2.26768
350.15	22357	1417.1	2.26736
351.15	23047	1417	2.2672
352.15	23735	1416.9	2.26704
353.15	24423	1416.8	2.26688
354.15	25110	1416.6	2.26656
355.15	25797	1416.5	2.2664
356.15	26482	1416.4	2.26624
357.15	27166	1416.3	2.26608
358.15	27851	1416.2	2.26592
359.15	28535	1416.1	2.26576
360.15	29217	1415.9	2.26544
361.15	29899	1415.8	2.26528
329.15	7689	1420.3	2.27248
330.15	8394	1420.1	2.27216
331.15	9099	1419.9	2.27184
332.15	9803	1419.8	2.27168
333.15	10506	1419.6	2.27136
334.15	11209	1419.5	2.2712
335.15	11912	1419.3	2.27088
336.15	12614	1419.1	2.27056
337.15	13315	1419	2.2704
338.15	14016	1418.8	2.27008
339.15	14716	1418.7	2.26992
340.15	15416	1418.5	2.2696
341.15	16114	1418.4	2.26944
342.15	16812	1418.3	2.26928
343.15	17508	1418.1	2.26896
344.15	18203	1418	2.2688
345.15	18898	1417.8	2.26848
346.15	19592	1417.7	2.26832
347.15	20287	1417.6	2.26816
348.15	20978	1417.4	2.26784
349.15	21671	1417.3	2.26768
350.15	22360	1417.2	2.26752
351.15	23050	1417	2.2672
352.15	23739	1416.9	2.26704
353.15	24426	1416.8	2.26688
354.15	25114	1416.7	2.26672
355.15	25801	1416.5	2.2664
356.15	26486	1416.4	2.26624
357.15	27171	1416.3	2.26608
358.15	27855	1416.2	2.26592
359.15	28538	1416.1	2.26576
360.15	29220	1416	2.2656
361.15	29902	1415.9	2.26544
359.15	5632	1334.4	2.13504
360.15	6174	1334.2	2.13472
361.15	6718	1334.1	2.13456
362.15	7261	1333.9	2.13424
363.15	7803	1333.8	2.13408
364.15	8346	1333.6	2.13376
365.15	8888	1333.5	2.1336
366.15	9430	1333.3	2.13328
367.15	9971	1333.2	2.13312
368.15	10512	1333.1	2.13296
369.15	11053	1332.9	2.13264
370.15	11593	1332.8	2.13248
371.15	12133	1332.7	2.13232
372.15	12673	1332.5	2.132
373.15	13212	1332.4	2.13184
374.15	13752	1332.3	2.13168
375.15	14290	1332.2	2.13152
376.15	14828	1332	2.1312
377.15	15366	1331.9	2.13104
378.15	15904	1331.8	2.13088
379.15	16441	1331.7	2.13072
380.15	16977	1331.5	2.1304
381.15	17514	1331.4	2.13024
382.15	18050	1331.3	2.13008
383.15	18585	1331.2	2.12992
384.15	19120	1331.1	2.12976
385.15	19655	1330.9	2.12944
386.15	20189	1330.8	2.12928
387.15	20723	1330.7	2.12912
388.15	21256	1330.6	2.12896
389.15	21789	1330.5	2.1288
390.15	22322	1330.4	2.12864
391.15	22855	1330.3	2.12848
392.15	23386	1330.2	2.12832
393.15	23917	1330	2.128
394.15	24448	1329.9	2.12784
395.15	24978	1329.8	2.12768
396.15	25507	1329.7	2.12752
397.15	26037	1329.6	2.12736
398.15	26566	1329.5	2.1272
399.15	27094	1329.4	2.12704
400.15	27622	1329.3	2.12688
401.15	28150	1329.2	2.12672
402.15	28677	1329.1	2.12656
403.15	29204	1329	2.1264
404.15	29730	1329	2.1264
359.15	5637	1334.4	2.13504
360.15	6180	1334.2	2.13472
361.15	6724	1334.1	2.13456
362.15	7266	1333.9	2.13424
363.15	7809	1333.8	2.13408
364.15	8350	1333.6	2.13376
365.15	8892	1333.5	2.1336
366.15	9434	1333.4	2.13344
367.15	9976	1333.2	2.13312
368.15	10516	1333.1	2.13296
369.15	11057	1332.9	2.13264
370.15	11598	1332.8	2.13248
371.15	12137	1332.7	2.13232
372.15	12677	1332.6	2.13216
373.15	13216	1332.4	2.13184
374.15	13756	1332.3	2.13168
375.15	14294	1332.2	2.13152
376.15	14831	1332	2.1312
377.15	15369	1331.9	2.13104
378.15	15906	1331.8	2.13088
379.15	16443	1331.7	2.13072
380.15	16980	1331.5	2.1304
381.15	17515	1331.4	2.13024
382.15	18051	1331.3	2.13008
383.15	18586	1331.2	2.12992
384.15	19121	1331.1	2.12976
385.15	19656	1330.9	2.12944
386.15	20189	1330.8	2.12928
387.15	20723	1330.7	2.12912
388.15	21256	1330.6	2.12896
389.15	21789	1330.5	2.1288
390.15	22322	1330.4	2.12864
391.15	22854	1330.3	2.12848
392.15	23385	1330.2	2.12832
393.15	23917	1330.1	2.12816
394.15	24448	1329.9	2.12784
395.15	24978	1329.8	2.12768
396.15	25508	1329.7	2.12752
397.15	26038	1329.6	2.12736
398.15	26567	1329.5	2.1272
399.15	27096	1329.4	2.12704
400.15	27623	1329.3	2.12688
401.15	28151	1329.2	2.12672
402.15	28678	1329.2	2.12672
403.15	29205	1329.1	2.12656
404.15	29732	1329	2.1264

System: 2,2,2-trifluoroethyl 1,1,2,2-tetrafluoroethyl ether; phases: Liquid
Property: Molar heat capacity at constant volume, J/K/mol (Liquid); method: Vacuum adiabatic calorimetry
Temperature, K	Pressure, kPa	Molar heat capacity at constant volume, J/K/mol	uncertainty
280.15	6663	187.8514970136	8.453317365612
281.15	7673	194.2532519704	8.741396338668
282.15	8685	190.6522648072	8.579351916324
283.15	9695	191.8525938616	8.633366723772
284.15	10704	193.4530326008	8.705386467036
285.15	11710	191.6525390192	8.624364255864
286.15	12714	193.8531422856	8.723391402852
287.15	13718	193.052922916	8.68738153122
288.15	14719	192.2527035464	8.651371659588
289.15	15719	193.6530874432	8.714388934944
290.15	16716	193.4530326008	8.705386467036
291.15	17712	194.4533068128	8.750398806576
292.15	18704	193.052922916	8.68738153122
293.15	19694	193.4530326008	8.705386467036
294.15	20683	194.8534164976	8.768403742392
295.15	21669	192.4527583888	8.660374127496
296.15	22653	195.05347134	8.7774062103
297.15	23636	193.8531422856	8.723391402852
298.15	24616	193.8531422856	8.723391402852
299.15	25595	195.4535810248	8.795411146116
300.15	26572	194.053197128	8.73239387076
301.15	27548	196.2538003944	8.831421017748
302.15	28522	193.6530874432	8.714388934944
303.15	29493	196.6539100792	8.849425953564
279.15	5663	189.8520454376	8.543342044692
280.15	6673	191.4524841768	8.615361787956
281.15	7685	189.2518809104	8.516334640968
282.15	8696	193.6530874432	8.714388934944
283.15	9705	192.4527583888	8.660374127496
284.15	10712	191.8525938616	8.633366723772
285.15	11717	193.6530874432	8.714388934944
286.15	12720	191.6525390192	8.624364255864
287.15	13722	194.6533616552	8.759401274484
288.15	14722	193.052922916	8.68738153122
289.15	15720	193.2529777584	8.696383999128
290.15	16717	195.8536907096	8.813416081932
291.15	17711	193.6530874432	8.714388934944
292.15	18703	193.052922916	8.68738153122
293.15	19694	195.4535810248	8.795411146116
294.15	20683	193.2529777584	8.696383999128
295.15	21669	193.6530874432	8.714388934944
296.15	22654	195.8536907096	8.813416081932
297.15	23636	194.4533068128	8.750398806576
298.15	24617	193.8531422856	8.723391402852
299.15	25596	196.4538552368	8.840423485656
300.15	26573	193.8531422856	8.723391402852
301.15	27548	195.8536907096	8.813416081932
302.15	28521	195.05347134	8.7774062103
303.15	29493	196.8539649216	8.858428421472
302.15	7147	196.4538552368	8.840423485656
303.15	8010	194.053197128	8.73239387076
304.15	8873	195.2535261824	8.786408678208
305.15	9734	197.6541842912	8.894438293104
306.15	10594	196.053745552	8.82241854984
307.15	11452	197.054019764	8.86743088938
308.15	12308	196.2538003944	8.831421017748
309.15	13163	197.4541294488	8.885435825196
310.15	14016	196.4538552368	8.840423485656
311.15	14867	197.054019764	8.86743088938
312.15	15718	197.2540746064	8.876433357288
313.15	16566	197.054019764	8.86743088938
314.15	17414	196.8539649216	8.858428421472
315.15	18260	196.4538552368	8.840423485656
316.15	19105	197.8542391336	8.903440761012
317.15	19949	198.4544036608	8.930448164736
318.15	20791	198.6544585032	8.939450632644
319.15	21632	197.6541842912	8.894438293104
320.15	22471	199.2546230304	8.966458036368
321.15	23311	198.4544036608	8.930448164736
322.15	24148	198.054293976	8.91244322892
323.15	24983	199.054568188	8.95745556846
324.15	25819	201.055116612	9.04748024754
325.15	26653	197.054019764	8.86743088938
326.15	27484	199.8547875576	8.993465440092
327.15	28315	198.6544585032	8.939450632644
328.15	29145	201.8553359816	9.083490119172
329.15	29975	200.2548972424	9.011470375908
301.15	6294	197.054019764	8.86743088938
303.15	8015	197.6541842912	8.894438293104
304.15	8874	194.4533068128	8.750398806576
305.15	9734	197.8542391336	8.903440761012
306.15	10592	195.4535810248	8.795411146116
307.15	11449	197.2540746064	8.876433357288
308.15	12303	195.2535261824	8.786408678208
309.15	13157	197.4541294488	8.885435825196
310.15	14009	195.6536358672	8.804413614024
311.15	14859	196.4538552368	8.840423485656
312.15	15708	198.054293976	8.91244322892
313.15	16557	196.8539649216	8.858428421472
314.15	17405	198.054293976	8.91244322892
315.15	18252	199.054568188	8.95745556846
316.15	19097	197.4541294488	8.885435825196
317.15	19942	200.8550617696	9.038477779632
318.15	20785	198.2543488184	8.921445696828
319.15	21626	197.8542391336	8.903440761012
320.15	22467	200.4549520848	9.020472843816
321.15	23306	199.2546230304	8.966458036368
322.15	24144	199.054568188	8.95745556846
323.15	24980	199.6547327152	8.984462972184
324.15	25816	200.6550069272	9.029475311724
325.15	26650	199.054568188	8.95745556846
326.15	27482	200.8550617696	9.038477779632
327.15	28313	199.6547327152	8.984462972184
328.15	29144	200.6550069272	9.029475311724
329.15	29973	201.6552811392	9.074487651264
329.15	7678	198.2543488184	8.921445696828
330.15	8385	206.6566521992	9.299549348964
331.15	9091	203.8558844056	9.173514798252
332.15	9796	205.2562683024	9.236532073608
333.15	10500	204.8561586176	9.218527137792
334.15	11204	205.8564328296	9.263539477332
335.15	11908	206.2565425144	9.281544413148
336.15	12610	205.2562683024	9.236532073608
337.15	13313	208.4571457808	9.380571560136
338.15	14014	204.2559940904	9.191519734068
339.15	14714	208.4571457808	9.380571560136
340.15	15413	207.056761884	9.31755428478
341.15	16111	207.056761884	9.31755428478
342.15	16809	207.056761884	9.31755428478
343.15	17505	207.056761884	9.31755428478
344.15	18201	208.4571457808	9.380571560136
345.15	18896	207.6569264112	9.344561688504
346.15	19590	208.8572554656	9.398576495952
347.15	20282	208.4571457808	9.380571560136
348.15	20974	209.8575296776	9.443588835492
349.15	21666	210.05758452	9.4525913034
350.15	22357	208.6572006232	9.389574028044
351.15	23047	209.8575296776	9.443588835492
352.15	23735	210.8578038896	9.488601175032
353.15	24423	210.2576393624	9.461593771308
354.15	25110	210.8578038896	9.488601175032
355.15	25797	211.057858732	9.49760364294
356.15	26482	211.8580781016	9.533613514572
357.15	27166	211.2579135744	9.506606110848
358.15	27851	212.2581877864	9.551618450388
359.15	28535	212.8583523136	9.578625854112
360.15	29217	214.058681368	9.63264066156
361.15	29899	213.4585168408	9.605633257836
329.15	7689	201.6552811392	9.074487651264
330.15	8394	203.6558295632	9.164512330344
331.15	9099	203.2557198784	9.146507394528
332.15	9803	203.4557747208	9.155509862436
333.15	10506	204.2559940904	9.191519734068
334.15	11209	204.6561037752	9.209524669884
335.15	11912	205.05621346	9.2275296057
336.15	12614	204.2559940904	9.191519734068
337.15	13315	206.6566521992	9.299549348964
338.15	14016	204.6561037752	9.209524669884
339.15	14716	206.056487672	9.27254194524
340.15	15416	206.8567070416	9.308551816872
341.15	16114	208.057036096	9.36256662432
342.15	16812	204.6561037752	9.209524669884
343.15	17508	209.4574199928	9.425583899676
344.15	18203	206.8567070416	9.308551816872
345.15	18898	208.4571457808	9.380571560136
346.15	19592	209.4574199928	9.425583899676
347.15	20287	209.2573651504	9.416581431768
348.15	20978	208.057036096	9.36256662432
349.15	21671	208.6572006232	9.389574028044
350.15	22360	209.8575296776	9.443588835492
351.15	23050	209.2573651504	9.416581431768
352.15	23739	210.4576942048	9.470596239216
353.15	24426	208.057036096	9.36256662432
354.15	25114	212.4582426288	9.560620918296
355.15	25801	209.4574199928	9.425583899676
356.15	26486	212.6582974712	9.569623386204
357.15	27171	210.2576393624	9.461593771308
358.15	27855	211.4579684168	9.515608578756
359.15	28538	210.4576942048	9.470596239216
360.15	29220	212.6582974712	9.569623386204
361.15	29902	211.2579135744	9.506606110848
359.15	5632	208.8572554656	9.398576495952
360.15	6174	219.6602169552	9.884709762984
361.15	6718	218.2598330584	9.821692487628
362.15	7261	215.8591749496	9.713662872732
363.15	7803	218.2598330584	9.821692487628
364.15	8346	219.060052428	9.85770235926
365.15	8888	216.6593943192	9.749672744364
366.15	9430	217.8597233736	9.803687551812
367.15	9971	217.4596136888	9.785682615996
368.15	10512	219.060052428	9.85770235926
369.15	11053	221.2606556944	9.956729506248
370.15	11593	218.8599975856	9.848699891352
371.15	12133	218.6599427432	9.839697423444
372.15	12673	218.8599975856	9.848699891352
373.15	13212	219.6602169552	9.884709762984
374.15	13752	219.4601621128	9.875707295076
375.15	14290	217.8597233736	9.803687551812
376.15	14828	220.8605460096	9.938724570432
377.15	15366	220.06032664	9.9027146988
378.15	15904	218.4598879008	9.830694955536
379.15	16441	218.8599975856	9.848699891352
380.15	16977	219.2601072704	9.866704827168
381.15	17514	219.2601072704	9.866704827168
382.15	18050	219.8602717976	9.893712230892
383.15	18585	221.2606556944	9.956729506248
384.15	19120	220.6604911672	9.929722102524
385.15	19655	218.8599975856	9.848699891352
386.15	20189	221.060600852	9.94772703834
387.15	20723	223.6613138032	10.064759121144
388.15	21256	224.6615880152	10.109771460684
389.15	21789	225.6618622272	10.154783800224
390.15	22322	226.8621912816	10.208798607672
391.15	22855	228.4626300208	10.280818350936
392.15	23386	227.062246124	10.21780107558
393.15	23917	228.2625751784	10.271815883028
394.15	24448	226.2620267544	10.181791203948
395.15	24978	226.6621364392	10.199796139764
396.15	25507	229.062794548	10.30782575466
397.15	26037	228.062520336	10.26281341512
398.15	26566	229.062794548	10.30782575466
399.15	27094	227.062246124	10.21780107558
400.15	27622	228.6626848632	10.289820818844
401.15	28150	229.6629590752	10.334833158384
402.15	28677	226.6621364392	10.199796139764
403.15	29204	229.2628493904	10.316828222568
404.15	29730	227.8624654936	10.253810947212
359.15	5637	212.6582974712	9.569623386204
360.15	6180	217.059504004	9.76767768018
361.15	6724	216.6593943192	9.749672744364
362.15	7266	216.4593394768	9.740670276456
363.15	7809	215.4590652648	9.695657936916
364.15	8350	216.059229792	9.72266534064
365.15	8892	215.8591749496	9.713662872732
366.15	9434	216.8594491616	9.758675212272
367.15	9976	214.4587910528	9.650645597376
368.15	10516	216.4593394768	9.740670276456
369.15	11057	217.059504004	9.76767768018
370.15	11598	217.4596136888	9.785682615996
371.15	12137	218.8599975856	9.848699891352
372.15	12677	215.8591749496	9.713662872732
373.15	13216	217.8597233736	9.803687551812
374.15	13756	217.6596685312	9.794685083904
375.15	14294	219.060052428	9.85770235926
376.15	14831	218.8599975856	9.848699891352
377.15	15369	218.4598879008	9.830694955536
378.15	15906	219.6602169552	9.884709762984
379.15	16443	219.8602717976	9.893712230892
380.15	16980	219.4601621128	9.875707295076
381.15	17515	217.2595588464	9.776680148088
382.15	18051	219.6602169552	9.884709762984
383.15	18586	221.4607105368	9.965731974156
384.15	19121	222.060875064	9.99273937788
385.15	19656	220.6604911672	9.929722102524
386.15	20189	221.060600852	9.94772703834
387.15	20723	224.6615880152	10.109771460684
388.15	21256	224.061423488	10.08276405696
389.15	21789	224.8616428576	10.118773928592
390.15	22322	224.8616428576	10.118773928592
391.15	22854	224.6615880152	10.109771460684
392.15	23385	225.0616977	10.1277763965
393.15	23917	226.4620815968	10.190793671856
394.15	24448	223.6613138032	10.064759121144
395.15	24978	225.0616977	10.1277763965
396.15	25508	226.8621912816	10.208798607672
397.15	26038	226.061971912	10.17278873604
398.15	26567	227.062246124	10.21780107558
399.15	27096	227.8624654936	10.253810947212
400.15	27623	228.4626300208	10.280818350936
401.15	28151	227.6624106512	10.244808479304
402.15	28678	227.2623009664	10.226803543488
403.15	29205	227.8624654936	10.253810947212
404.15	29732	229.8630139176	10.343835626292

System: methane, difluoro- + 1,1,1,2,2-pentafluoroethane; phases: Liquid
Fixed: Mass fraction of methane, difluoro- = .4981
Property: Mass density, kg/m3 (Liquid); method: Pycnometric method
Temperature, K	Pressure, kPa	Mass density, kg/m3	uncertainty
277.15	11982	1205.5	1.9288
278.15	12826	1205.4	1.92864
279.15	13669	1205.2	1.92832
280.15	14512	1205.1	1.92816
281.15	15355	1204.9	1.92784
282.15	16198	1204.8	1.92768
283.15	17040	1204.6	1.92736
284.15	17881	1204.5	1.9272
285.15	18722	1204.3	1.92688
286.15	19563	1204.2	1.92672
287.15	20403	1204	1.9264
288.15	21239	1203.8	1.92608
289.15	22077	1203.7	1.92592
291.15	23750	1203.4	1.92544
292.15	24585	1203.2	1.92512
293.15	25420	1203	1.9248
294.15	26254	1202.9	1.92464
295.15	27085	1202.7	1.92432
296.15	27917	1202.5	1.924
297.15	28747	1202.3	1.92368
298.15	29575	1202.2	1.92352
297.15	8118	1113.5	1.7816
299.15	9422	1113.3	1.78128
300.15	10072	1113.2	1.78112
301.15	10723	1113.1	1.78096
302.15	11374	1113	1.7808
303.15	12024	1112.9	1.78064
304.15	12672	1112.8	1.78048
305.15	13320	1112.6	1.78016
306.15	13970	1112.5	1.78
307.15	14620	1112.4	1.77984
308.15	15268	1112.3	1.77968
309.15	15915	1112.1	1.77936
310.15	16562	1111.9	1.77904
311.15	17208	1111.8	1.77888
312.15	17853	1111.7	1.77872
313.15	18499	1111.6	1.77856
314.15	19144	1111.4	1.77824
315.15	19788	1111.3	1.77808
316.15	20432	1111.2	1.77792
317.15	21075	1111	1.7776
318.15	21719	1110.9	1.77744
319.15	22362	1110.7	1.77712
320.15	23005	1110.6	1.77696
321.15	23648	1110.5	1.7768
322.15	24289	1110.3	1.77648
323.15	24930	1110.2	1.77632
324.15	25571	1110	1.776
325.15	26210	1109.9	1.77584
326.15	26850	1109.8	1.77568
327.15	27488	1109.6	1.77536
328.15	28127	1109.4	1.77504
329.15	28764	1109.3	1.77488
330.15	29402	1109.1	1.77456
330.15	6255	921.2	1.47392
331.15	6620	921.1	1.47376
332.15	6987	921	1.4736
333.15	7355	921	1.4736
334.15	7723	920.9	1.47344
335.15	8090	920.8	1.47328
336.15	8457	920.7	1.47312
337.15	8826	920.6	1.47296
338.15	9194	920.5	1.4728
339.15	9563	920.4	1.47264
372.15	21875	917.6	1.46816
373.15	22250	917.6	1.46816
374.15	22625	917.5	1.468
375.15	23000	917.4	1.46784
376.15	23375	917.3	1.46768
377.15	23750	917.2	1.46752
378.15	24125	917.1	1.46736
379.15	24500	917	1.4672
380.15	24875	916.9	1.46704
381.15	25250	916.8	1.46688
382.15	25625	916.7	1.46672
383.15	26000	916.6	1.46656
384.15	26375	916.5	1.4664
385.15	26750	916.5	1.4664
386.15	27125	916.4	1.46624
387.15	27500	916.3	1.46608
388.15	27874	916.2	1.46592
389.15	28249	916.1	1.46576
390.15	28624	916	1.4656
391.15	28998	915.9	1.46544
392.15	29373	915.8	1.46528
329.15	5904	921.4	1.47424
330.15	6269	921.3	1.47408
331.15	6635	921.2	1.47392
332.15	7002	921.1	1.47376
333.15	7370	921.1	1.47376
334.15	7736	921	1.4736
335.15	8104	920.9	1.47344
336.15	8472	920.8	1.47328
337.15	8840	920.8	1.47328
338.15	9209	920.7	1.47312
339.15	9579	920.6	1.47296
372.15	21901	917.8	1.46848
373.15	22277	917.8	1.46848
374.15	22654	917.7	1.46832
375.15	23029	917.6	1.46816
376.15	23406	917.5	1.468
377.15	23780	917.4	1.46784
378.15	24155	917.3	1.46768
379.15	24531	917.2	1.46752
380.15	24906	917.1	1.46736
381.15	25282	917	1.4672
382.15	25657	916.9	1.46704
383.15	26033	916.8	1.46688
384.15	26408	916.7	1.46672
385.15	26784	916.6	1.46656
386.15	27159	916.6	1.46656
387.15	27533	916.5	1.4664
388.15	27907	916.4	1.46624
389.15	28282	916.3	1.46608
390.15	28657	916.2	1.46592
391.15	29032	916.1	1.46576
392.15	29407	916	1.4656
393.15	29782	915.9	1.46544
329.15	5865	921.2	1.47392
330.15	6231	921.1	1.47376
331.15	6598	921	1.4736
332.15	6965	921	1.4736
333.15	7333	920.9	1.47344
334.15	7700	920.8	1.47328
335.15	8069	920.7	1.47312
336.15	8438	920.7	1.47312
337.15	8807	920.6	1.47296
338.15	9176	920.5	1.4728
371.15	21484	917.7	1.46832
372.15	21859	917.6	1.46816
373.15	22234	917.5	1.468
374.15	22609	917.5	1.468
375.15	22984	917.4	1.46784
376.15	23359	917.3	1.46768
377.15	23734	917.2	1.46752
378.15	24109	917.1	1.46736
379.15	24484	917	1.4672
380.15	24858	916.9	1.46704
381.15	25233	916.8	1.46688
382.15	25608	916.7	1.46672
383.15	25983	916.6	1.46656
384.15	26358	916.5	1.4664
385.15	26733	916.4	1.46624
386.15	27107	916.3	1.46608
387.15	27482	916.2	1.46592
388.15	27856	916.1	1.46576
389.15	28231	916	1.4656
390.15	28605	915.9	1.46544
391.15	28979	915.8	1.46528
392.15	29354	915.7	1.46512
393.15	29728	915.6	1.46496
345.15	6187	774	1.2384
347.15	6657	773.9	1.23824
348.15	6893	773.9	1.23824
349.15	7130	773.8	1.23808
350.15	7368	773.8	1.23808
351.15	7606	773.7	1.23792
352.15	7845	773.6	1.23776
353.15	8084	773.6	1.23776
354.15	8324	773.5	1.2376
387.15	16448	771.6	1.23456
388.15	16698	771.5	1.2344
389.15	16948	771.5	1.2344
390.15	17198	771.4	1.23424
391.15	17448	771.3	1.23408
392.15	17698	771.3	1.23408
393.15	17949	771.2	1.23392
394.15	18199	771.1	1.23376
395.15	18450	771.1	1.23376
396.15	18701	771	1.2336
397.15	18951	770.9	1.23344
346.15	6420	774.1	1.23856
347.15	6655	774	1.2384
348.15	6890	773.9	1.23824
349.15	7127	773.9	1.23824
350.15	7364	773.8	1.23808
351.15	7602	773.8	1.23808
352.15	7841	773.7	1.23792
353.15	8080	773.7	1.23792
354.15	8320	773.6	1.23776
355.15	8560	773.6	1.23776
356.15	8801	773.5	1.2376
357.15	9042	773.5	1.2376
358.15	9284	773.4	1.23744
359.15	9527	773.3	1.23728
360.15	9770	773.3	1.23728
361.15	10013	773.2	1.23712
362.15	10256	773.2	1.23712
363.15	10501	773.1	1.23696
364.15	10745	773.1	1.23696
365.15	10990	773	1.2368
366.15	11235	772.9	1.23664
309.15	15917	1112.1	1.77936
310.15	16564	1112	1.7792
311.15	17212	1111.9	1.77904
312.15	17859	1111.7	1.77872
313.15	18506	1111.6	1.77856
314.15	19153	1111.5	1.7784
315.15	19798	1111.3	1.77808
316.15	20443	1111.2	1.77792
317.15	21088	1111.1	1.77776
318.15	21733	1110.9	1.77744
319.15	22377	1110.8	1.77728
320.15	23021	1110.7	1.77712
321.15	23665	1110.5	1.7768
322.15	24307	1110.4	1.77664
323.15	24949	1110.3	1.77648
324.15	25590	1110.1	1.77616
325.15	26231	1110	1.776
326.15	26871	1109.8	1.77568
327.15	27511	1109.7	1.77552
328.15	28150	1109.5	1.7752
329.15	28790	1109.4	1.77504
330.15	29426	1109.2	1.77472
331.15	30065	1109.1	1.77456
300.15	10089	1113.1	1.78096
301.15	10737	1113	1.7808
302.15	11385	1112.9	1.78064
303.15	12032	1112.8	1.78048
304.15	12680	1112.7	1.78032
305.15	13327	1112.5	1.78
306.15	13973	1112.4	1.77984
307.15	14620	1112.3	1.77968
308.15	15268	1112.2	1.77952
340.15	9933	920.3	1.47248
341.15	10302	920.2	1.47232
342.15	10672	920.1	1.47216
343.15	11043	920.1	1.47216
344.15	11413	920	1.472
345.15	11784	919.9	1.47184
346.15	12155	919.8	1.47168
347.15	12527	919.7	1.47152
348.15	12899	919.6	1.47136
349.15	13271	919.6	1.47136
350.15	13643	919.5	1.4712
351.15	14015	919.4	1.47104
352.15	14387	919.3	1.47088
353.15	14761	919.2	1.47072
354.15	15133	919.1	1.47056
355.15	15507	919	1.4704
356.15	15880	919	1.4704
357.15	16254	918.9	1.47024
358.15	16628	918.8	1.47008
359.15	17003	918.7	1.46992
360.15	17377	918.7	1.46992
361.15	17752	918.6	1.46976
362.15	18127	918.5	1.4696
363.15	18501	918.4	1.46944
364.15	18876	918.3	1.46928
365.15	19250	918.3	1.46928
366.15	19625	918.2	1.46912
367.15	20000	918.1	1.46896
368.15	20375	918	1.4688
369.15	20750	917.9	1.46864
370.15	21125	917.8	1.46848
371.15	21500	917.7	1.46832
340.15	9949	920.5	1.4728
341.15	10320	920.4	1.47264
342.15	10691	920.4	1.47264
343.15	11061	920.3	1.47248
344.15	11431	920.2	1.47232
345.15	11802	920.1	1.47216
346.15	12174	920.1	1.47216
347.15	12547	920	1.472
348.15	12919	919.9	1.47184
349.15	13292	919.8	1.47168
350.15	13664	919.7	1.47152
351.15	14036	919.6	1.47136
352.15	14409	919.6	1.47136
353.15	14783	919.5	1.4712
354.15	15157	919.4	1.47104
355.15	15531	919.3	1.47088
356.15	15904	919.2	1.47072
357.15	16277	919.1	1.47056
358.15	16652	919.1	1.47056
359.15	17027	919	1.4704
360.15	17401	918.9	1.47024
361.15	17776	918.8	1.47008
362.15	18151	918.7	1.46992
363.15	18526	918.6	1.46976
364.15	18899	918.5	1.4696
365.15	19274	918.4	1.46944
366.15	19649	918.4	1.46944
367.15	20025	918.3	1.46928
368.15	20400	918.2	1.46912
369.15	20776	918.1	1.46896
370.15	21150	918	1.4688
371.15	21525	917.9	1.46864
339.15	9546	920.4	1.47264
340.15	9916	920.3	1.47248
341.15	10286	920.3	1.47248
342.15	10657	920.2	1.47232
343.15	11028	920.1	1.47216
344.15	11399	920.1	1.47216
345.15	11770	920	1.472
346.15	12143	919.9	1.47184
347.15	12515	919.8	1.47168
348.15	12887	919.8	1.47168
349.15	13259	919.7	1.47152
350.15	13631	919.6	1.47136
351.15	14004	919.5	1.4712
352.15	14377	919.4	1.47104
353.15	14750	919.3	1.47088
354.15	15123	919.2	1.47072
355.15	15496	919.1	1.47056
356.15	15869	919.1	1.47056
357.15	16243	919	1.4704
358.15	16617	918.9	1.47024
359.15	16990	918.8	1.47008
360.15	17365	918.7	1.46992
361.15	17739	918.6	1.46976
362.15	18113	918.5	1.4696
363.15	18487	918.4	1.46944
364.15	18862	918.4	1.46944
365.15	19236	918.3	1.46928
366.15	19610	918.2	1.46912
367.15	19985	918.1	1.46896
368.15	20360	918	1.4688
369.15	20734	917.9	1.46864
370.15	21109	917.8	1.46848
355.15	8565	773.5	1.2376
356.15	8806	773.4	1.23744
357.15	9048	773.4	1.23744
358.15	9290	773.3	1.23728
359.15	9532	773.3	1.23728
360.15	9775	773.2	1.23712
361.15	10019	773.1	1.23696
362.15	10262	773.1	1.23696
363.15	10506	773	1.2368
364.15	10751	773	1.2368
365.15	10996	772.9	1.23664
366.15	11241	772.9	1.23664
367.15	11486	772.8	1.23648
368.15	11732	772.7	1.23632
369.15	11979	772.7	1.23632
370.15	12225	772.6	1.23616
371.15	12472	772.6	1.23616
372.15	12719	772.5	1.236
373.15	12966	772.5	1.236
374.15	13213	772.4	1.23584
375.15	13461	772.3	1.23568
376.15	13709	772.3	1.23568
377.15	13957	772.2	1.23552
378.15	14205	772.2	1.23552
379.15	14454	772.1	1.23536
380.15	14702	772	1.2352
381.15	14951	772	1.2352
382.15	15200	771.9	1.23504
383.15	15449	771.8	1.23488
384.15	15699	771.8	1.23488
385.15	15948	771.7	1.23472
386.15	16198	771.7	1.23472
367.15	11480	772.9	1.23664
368.15	11726	772.8	1.23648
369.15	11972	772.8	1.23648
370.15	12219	772.7	1.23632
371.15	12465	772.6	1.23616
372.15	12712	772.6	1.23616
373.15	12959	772.5	1.236
374.15	13207	772.5	1.236
375.15	13454	772.4	1.23584
376.15	13702	772.3	1.23568
377.15	13950	772.3	1.23568
378.15	14198	772.2	1.23552
379.15	14447	772.2	1.23552
380.15	14696	772.1	1.23536
381.15	14944	772.1	1.23536
382.15	15194	772	1.2352
383.15	15443	772	1.2352
384.15	15692	771.9	1.23504
385.15	15942	771.8	1.23488
386.15	16192	771.8	1.23488
387.15	16442	771.7	1.23472
388.15	16692	771.6	1.23456
389.15	16942	771.6	1.23456
390.15	17192	771.5	1.2344
391.15	17442	771.4	1.23424
392.15	17692	771.4	1.23424
393.15	17943	771.3	1.23408
394.15	18193	771.3	1.23408
395.15	18444	771.2	1.23392

System: methane, difluoro- + 1,1,1,2,2-pentafluoroethane; phases: Liquid
Fixed: Mass fraction of methane, difluoro- = .4981
Property: Molar heat capacity at constant volume, J/K/mol (Liquid); method: Vacuum adiabatic calorimetry
Temperature, K	Pressure, kPa	Molar heat capacity at constant volume, J/K/mol	uncertainty
277.15	11982	66.6603863822258	.041265
278.15	12826	66.0788344835804	.040905
279.15	13669	66.5149984075645	.041175
280.15	14512	66.7330803695565	.04131
281.15	15355	66.1515284709111	.04095
282.15	16198	66.4423044202338	.04113
283.15	17040	65.8607525215884	.04077
284.15	17881	67.7507961921859	.04194
285.15	18722	66.2242224582418	.040995
286.15	19563	66.0788344835804	.040905
287.15	20403	66.1515284709111	.04095
288.15	21239	65.9334465089191	.040815
289.15	22077	67.0965503062098	.041535
291.15	23750	66.8784683442178	.0414
292.15	24585	66.8057743568872	.041355
293.15	25420	65.6426705595964	.040635
294.15	26254	66.3696104329031	.041085
295.15	27085	65.2792006229431	.04041
296.15	27917	67.3146322682019	.04167
297.15	28747	66.2242224582418	.040995
297.15	8118	66.8784683442178	.0414
298.15	29575	66.0061404962498	.04086
299.15	9422	68.4777360654926	.04239
300.15	10072	69.3500639134607	.04293
300.15	10089	66.2242224582418	.040995
301.15	10723	68.9865939768073	.042705
301.15	10737	69.931615812106	.04329
302.15	11374	69.2046759387993	.04284
302.15	11385	67.3146322682019	.04167
303.15	12024	69.2046759387993	.04284
303.15	12032	68.6958180274846	.042525
304.15	12672	68.9138999894766	.04266
304.15	12680	68.7685120148153	.04257
305.15	13320	69.5681458754527	.043065
305.15	13327	69.059287964138	.04275
306.15	13970	69.059287964138	.04275
306.15	13973	68.9865939768073	.042705
307.15	14620	68.6231240401539	.04248
307.15	14620	68.3323480908312	.0423
308.15	15268	69.713533850114	.043155
308.15	15268	68.1142661288392	.042165
309.15	15917	69.5681458754527	.043065
309.15	15915	68.6231240401539	.04248
310.15	16564	68.841206002146	.042615
310.15	16562	68.5504300528233	.042435
311.15	17212	68.9865939768073	.042705
311.15	17208	69.1319819514686	.042795
312.15	17859	68.4050420781619	.042345
312.15	17853	68.9138999894766	.04266
313.15	18506	68.7685120148153	.04257
313.15	18499	66.8057743568872	.041355
314.15	19153	69.1319819514686	.042795
314.15	19144	68.4777360654926	.04239
315.15	19798	69.3500639134607	.04293
315.15	19788	68.4050420781619	.042345
316.15	20443	68.4050420781619	.042345
316.15	20432	68.5504300528233	.042435
317.15	21088	68.6231240401539	.04248
317.15	21075	68.4777360654926	.04239
318.15	21733	68.5504300528233	.042435
318.15	21719	67.7507961921859	.04194
319.15	22377	67.8961841668472	.04203
319.15	22362	68.3323480908312	.0423
320.15	23021	69.2046759387993	.04284
320.15	23005	69.713533850114	.043155
321.15	23665	68.3323480908312	.0423
321.15	23648	67.0965503062098	.041535
322.15	24307	68.4050420781619	.042345
322.15	24289	70.149697774098	.043425
323.15	24949	69.713533850114	.043155
323.15	24930	68.4050420781619	.042345
324.15	25590	68.0415721415086	.04212
324.15	25571	68.7685120148153	.04257
325.15	26231	68.4050420781619	.042345
325.15	26210	67.6054082175245	.04185
326.15	26871	68.1142661288392	.042165
326.15	26850	68.6231240401539	.04248
327.15	27511	67.7507961921859	.04194
327.15	27488	68.5504300528233	.042435
328.15	28150	68.1869601161699	.04221
328.15	28127	68.6231240401539	.04248
329.15	28790	68.6231240401539	.04248
329.15	28764	69.1319819514686	.042795
329.15	5904	72.1124354320262	.04464
329.15	5865	70.2223917614287	.04347
330.15	29402	68.0415721415086	.04212
330.15	6255	72.3305173940182	.044775
330.15	29426	67.9688781541779	.042075
330.15	6269	69.1319819514686	.042795
330.15	6231	73.7843971406316	.045675
331.15	6620	71.0947196093968	.04401
331.15	6635	70.149697774098	.043425
331.15	30065	69.931615812106	.04329
331.15	6598	70.6585556854127	.04374
332.15	6987	73.2755392293169	.04536
332.15	7002	71.4581895460501	.044235
332.15	6965	73.2028452419862	.045315
333.15	7370	69.1319819514686	.042795
333.15	7355	71.8216594827035	.04446
333.15	7333	71.3854955587195	.04419
334.15	7723	71.0220256220661	.043965
334.15	7736	71.2401075840581	.0441
334.15	7700	71.1674135967274	.044055
335.15	8090	72.6212933433409	.044955
335.15	8104	70.5131677107514	.04365
335.15	8069	71.0220256220661	.043965
336.15	8472	70.8766376474048	.043875
336.15	8457	69.495451888122	.04302
336.15	8438	70.7312496727434	.043785
337.15	8840	69.4227579007913	.042975
337.15	8826	71.5308835333808	.04428
337.15	8807	71.0220256220661	.043965
338.15	9194	71.3854955587195	.04419
338.15	9209	69.4227579007913	.042975
338.15	9176	71.0220256220661	.043965
339.15	9563	71.3854955587195	.04419
339.15	9579	69.5681458754527	.043065
339.15	9546	70.6585556854127	.04374
340.15	9949	68.9138999894766	.04266
340.15	9933	70.3677797360901	.04356
340.15	9916	70.2950857487594	.043515
341.15	10302	70.9493316347354	.04392
341.15	10320	70.149697774098	.043425
341.15	10286	70.4404737234207	.043605
342.15	10691	68.5504300528233	.042435
342.15	10672	70.5858616980821	.043695
342.15	10657	69.7862278374447	.0432
343.15	11061	70.0770037867674	.04338
343.15	11043	71.4581895460501	.044235
343.15	11028	70.149697774098	.043425
344.15	11413	70.5858616980821	.043695
344.15	11431	68.9865939768073	.042705
344.15	11399	70.0770037867674	.04338
345.15	11784	71.3854955587195	.04419
345.15	11802	69.3500639134607	.04293
345.15	11770	69.7862278374447	.0432
345.15	6187	86.2877629615071	.053415
346.15	12174	68.6231240401539	.04248
346.15	12155	70.3677797360901	.04356
346.15	12143	70.2950857487594	.043515
346.15	6420	87.0147028348138	.053865
347.15	12527	72.3305173940182	.044775
347.15	12547	69.3500639134607	.04293
347.15	12515	70.4404737234207	.043605
347.15	6657	86.0696809995151	.05328
347.15	6655	85.4881291008697	.05292
348.15	12899	70.149697774098	.043425
348.15	12919	68.841206002146	.042615
348.15	12887	69.059287964138	.04275
348.15	6893	86.5058449234991	.05355
348.15	6890	85.6335170755311	.05301
349.15	13292	69.4227579007913	.042975
349.15	13271	70.9493316347354	.04392
349.15	13259	69.8589218247754	.043245
349.15	7130	86.5058449234991	.05355
349.15	7127	83.7434734049336	.05184
350.15	13643	70.149697774098	.043425
350.15	13664	69.27736992613	.042885
350.15	13631	69.4227579007913	.042975
350.15	7368	84.4704132782403	.05229
350.15	7364	85.197353151547	.05274
351.15	14036	68.4777360654926	.04239
351.15	14015	70.7312496727434	.043785
351.15	14004	70.0770037867674	.04338
351.15	7606	85.4154351135391	.052875
351.15	7602	84.106943341587	.052065
352.15	14409	68.841206002146	.042615
352.15	14387	70.2223917614287	.04347
352.15	14377	69.059287964138	.04275
352.15	7845	84.106943341587	.052065
352.15	7841	83.2346154936189	.051525
353.15	14783	68.4050420781619	.042345
353.15	14750	70.0770037867674	.04338
353.15	8084	83.1619215062882	.05148
353.15	14761	71.4581895460501	.044235
353.15	8080	82.3622876456509	.050985
354.15	15133	70.5858616980821	.043695
354.15	15123	69.495451888122	.04302
354.15	8324	83.888861379595	.05193
354.15	15157	68.4777360654926	.04239
354.15	8320	83.3800034682803	.051615
355.15	15507	70.5858616980821	.043695
355.15	15496	69.6408398627833	.04311
355.15	8565	84.6158012529017	.05238
355.15	15531	69.6408398627833	.04311
355.15	8560	82.7257575823042	.05121
356.15	15904	68.9865939768073	.042705
356.15	15869	70.5858616980821	.043695
356.15	8806	82.8711455569656	.0513
356.15	15880	69.931615812106	.04329
356.15	8801	83.4526974556109	.05166
357.15	16254	69.931615812106	.04329
357.15	16277	69.4227579007913	.042975
357.15	16243	68.4050420781619	.042345
357.15	9048	82.4349816329815	.05103
357.15	9042	82.2168996709895	.050895
358.15	16628	70.7312496727434	.043785
358.15	16617	69.7862278374447	.0432
358.15	16652	69.1319819514686	.042795
358.15	9290	83.5980854302723	.05175
358.15	9284	81.7080417596748	.05058
359.15	17003	71.2401075840581	.0441
359.15	16990	69.8589218247754	.043245
359.15	9532	83.0892275189576	.051435
359.15	17027	67.8961841668472	.04203
359.15	9527	82.2895936583202	.05094
360.15	17365	69.4227579007913	.042975
360.15	17377	68.5504300528233	.042435
360.15	9775	82.2895936583202	.05094
360.15	17401	69.6408398627833	.04311
360.15	9770	82.0715116963282	.050805
361.15	17776	68.4777360654926	.04239
361.15	17752	71.4581895460501	.044235
361.15	17739	70.0770037867674	.04338
361.15	10019	82.7257575823042	.05121
361.15	10013	81.1991838483601	.050265
362.15	18151	69.059287964138	.04275
362.15	18113	69.4227579007913	.042975
362.15	10262	83.3073094809496	.05157
362.15	18127	71.1674135967274	.044055
362.15	10256	82.6530635949735	.051165
363.15	18501	69.5681458754527	.043065
363.15	18487	70.5858616980821	.043695
363.15	18526	69.7862278374447	.0432
363.15	10506	82.2168996709895	.050895
363.15	10501	80.6903259370454	.04995
364.15	18862	69.2046759387993	.04284
364.15	10751	81.5626537850135	.05049
364.15	18899	68.9138999894766	.04266
364.15	18876	70.8039436600741	.04383
364.15	10745	81.7807357470055	.050625
365.15	19250	69.7862278374447	.0432
365.15	19236	69.5681458754527	.043065
365.15	10996	82.2895936583202	.05094
365.15	19274	70.0770037867674	.04338
365.15	10990	81.4899597976828	.050445
366.15	19649	68.9865939768073	.042705
366.15	19610	70.0043097994367	.043335
366.15	19625	70.2223917614287	.04347
366.15	11241	81.7807357470055	.050625
366.15	11235	80.0360800510694	.049545
367.15	20025	68.4777360654926	.04239
367.15	20000	69.8589218247754	.043245
367.15	19985	69.059287964138	.04275
367.15	11486	81.9261237216668	.050715
367.15	11480	81.4899597976828	.050445
368.15	20360	69.3500639134607	.04293
368.15	20400	68.7685120148153	.04257
368.15	20375	69.713533850114	.043155
368.15	11732	82.0715116963282	.050805
368.15	11726	81.4172658103521	.0504
369.15	20734	69.4227579007913	.042975
369.15	11979	82.7257575823042	.05121
369.15	20776	68.6958180274846	.042525
369.15	20750	70.0043097994367	.043335
369.15	11972	79.890692076408	.049455
370.15	21125	69.3500639134607	.04293
370.15	12225	80.7630199243761	.049995
370.15	21150	69.2046759387993	.04284
370.15	21109	70.8039436600741	.04383
370.15	12219	80.6903259370454	.04995
371.15	21484	70.2950857487594	.043515
371.15	12472	82.0715116963282	.050805
371.15	21525	68.5504300528233	.042435
371.15	21500	71.8216594827035	.04446
371.15	12465	80.2541620130614	.04968
372.15	21875	69.6408398627833	.04311
372.15	21901	69.4227579007913	.042975
372.15	21859	70.4404737234207	.043605
372.15	12719	81.7807357470055	.050625
372.15	12712	80.1087740384001	.04959
373.15	22277	69.5681458754527	.043065
373.15	12966	82.4349816329815	.05103
373.15	22250	71.1674135967274	.044055
373.15	22234	69.8589218247754	.043245
373.15	12959	80.9084078990374	.050085
374.15	22625	70.3677797360901	.04356
374.15	22654	69.2046759387993	.04284
374.15	13213	81.7080417596748	.05058
374.15	22609	70.5858616980821	.043695
374.15	13207	80.1087740384001	.04959
375.15	23000	72.3305173940182	.044775
375.15	13461	81.8534297343362	.05067
375.15	23029	70.149697774098	.043425
375.15	22984	71.6762715080421	.04437
375.15	13454	80.0360800510694	.049545
376.15	23406	70.0770037867674	.04338
376.15	23359	71.6035775207115	.044325
376.15	13709	82.8711455569656	.0513
376.15	23375	71.0220256220661	.043965
376.15	13702	80.7630199243761	.049995
377.15	23780	70.8766376474048	.043875
377.15	23734	71.2401075840581	.0441
377.15	23750	71.6035775207115	.044325
377.15	13957	81.3445718230215	.050355
377.15	13950	82.1442056836588	.05085
378.15	24155	70.5131677107514	.04365
378.15	14205	80.1814680257307	.049635
378.15	24125	71.8216594827035	.04446
378.15	24109	72.0397414446955	.044595
378.15	14198	80.2541620130614	.04968
379.15	24531	70.2223917614287	.04347
379.15	14454	81.8534297343362	.05067
379.15	24500	70.9493316347354	.04392
379.15	24484	72.0397414446955	.044595
379.15	14447	81.1991838483601	.050265
380.15	14702	80.8357139117068	.05004
380.15	24906	70.8766376474048	.043875
380.15	24875	71.6035775207115	.044325
380.15	24858	72.1124354320262	.04464
380.15	14696	80.4722439750534	.049815
381.15	14951	81.9261237216668	.050715
381.15	25282	68.9138999894766	.04266
381.15	25250	71.6035775207115	.044325
381.15	25233	72.3305173940182	.044775
381.15	14944	80.5449379623841	.04986
382.15	25625	71.7489654953728	.044415
382.15	25608	70.5131677107514	.04365
382.15	25657	69.6408398627833	.04311
382.15	15200	81.1991838483601	.050265
382.15	15194	81.1991838483601	.050265
383.15	15449	81.1264898610295	.05022
383.15	26000	71.7489654953728	.044415
383.15	25983	72.3305173940182	.044775
383.15	26033	69.931615812106	.04329
383.15	15443	80.1814680257307	.049635
384.15	26375	72.8393753053329	.04509
384.15	26408	70.0043097994367	.043335
384.15	15699	80.6176319497147	.049905
384.15	26358	72.6939873306715	.045
384.15	15692	82.2895936583202	.05094
385.15	26784	69.27736992613	.042885
385.15	26733	72.5485993560102	.04491
385.15	26750	72.4032113813489	.04482
385.15	15948	82.5803696076429	.05112
385.15	15942	79.5999161270853	.049275
386.15	27107	72.4032113813489	.04482
386.15	27125	72.7666813180022	.045045
386.15	27159	68.4777360654926	.04239
386.15	16198	83.0892275189576	.051435
386.15	16192	81.1991838483601	.050265
387.15	27533	70.6585556854127	.04374
387.15	27500	73.5663151786396	.04554
387.15	27482	73.5663151786396	.04554
387.15	16448	81.3445718230215	.050355
387.15	16442	79.3091401777627	.049095
388.15	27856	73.7117031533009	.04563
388.15	27907	69.059287964138	.04275
388.15	27874	73.7117031533009	.04563
388.15	16698	82.5076756203122	.051075
388.15	16692	80.6176319497147	.049905
389.15	28231	74.0751730899543	.045855
389.15	28249	73.8570911279623	.04572
389.15	28282	70.2223917614287	.04347
389.15	16948	82.0715116963282	.050805
389.15	16942	80.7630199243761	.049995
390.15	28605	74.0751730899543	.045855
390.15	28624	74.7294189759304	.04626
390.15	17198	83.7434734049336	.05184
390.15	28657	70.2950857487594	.043515
390.15	17192	80.8357139117068	.05004
391.15	28998	72.7666813180022	.045045
391.15	29032	70.4404737234207	.043605
391.15	17448	83.670779417603	.051795
391.15	28979	73.7843971406316	.045675
391.15	17442	81.0537958736988	.050175
392.15	29354	72.7666813180022	.045045
392.15	17698	81.3445718230215	.050355
392.15	29373	71.3128015713888	.044145
392.15	29407	68.841206002146	.042615
392.15	17692	81.0537958736988	.050175
393.15	17949	81.2718778356908	.05031
393.15	29782	72.1851294193568	.044685
393.15	29728	74.0024791026236	.04581
393.15	17943	79.3818341650933	.04914
394.15	18199	80.8357139117068	.05004
394.15	18193	81.9988177089975	.05076
395.15	18450	83.888861379595	.05193
395.15	18444	80.1814680257307	.049635
396.15	18701	80.6176319497147	.049905
397.15	18951	82.3622876456509	.050985
